@<TRIPOS>MOLECULE
modXNA-fragment:2AD:HEAD01:@C5':HEAD01STRIP:@O1,H6:TAIL01:@O3':TAIL01STRIP:@H7:HEAD03:@C1':HEAD03STRIP:@C6,H9,H10,H11
   23    23     1     0     0
SMALL
USER_CHARGES


@<TRIPOS>ATOM
      1 O1         -2.6340    0.6590    0.7420 OH         1 2AD     -0.679145
      2 C5'        -2.2780    0.3280   -0.5730 CI         1 2AD      0.113345
      3 H5'        -2.5050    1.1400   -1.2580 H1         1 2AD      0.029316
      4 H5''       -2.8240   -0.5540   -0.9060 H1         1 2AD      0.029316
      5 C4'        -0.7940    0.0400   -0.6530 CT         1 2AD      0.182868
      6 H4'        -0.5990   -0.4170   -1.6250 H1         1 2AD     -0.009488
      7 O4'        -0.0610    1.2230   -0.5150 OS         1 2AD     -0.499000
      8 C1'         1.2950    0.8820   -0.3030 CT         1 2AD      0.202010
      9 C3'        -0.2120   -0.8540    0.4400 CT         1 2AD      0.116890
     10 H3'        -0.6180   -0.5380    1.3920 H1         1 2AD      0.014000
     11 C2'         1.2910   -0.5040    0.3840 CT         1 2AD      0.406611
     12 H2'         1.6900   -0.4320    1.3890 H1         1 2AD     -0.015269
     13 N2'         2.1350   -1.4370   -0.3360 NT         1 2AD     -1.168482
     14 O3'        -0.4300   -2.2240    0.2380 OS         1 2AD     -0.777645
     15 H6         -3.4710    1.1000    0.7460 HO         1 2AD      0.439691
     16 C6          1.9640    1.9910    0.4830 CT         1 2AD     -0.236410
     17 H7         -1.2710   -2.4630    0.6010 HO         1 2AD      0.487475
     18 H1'         1.7830    0.7790   -1.2690 H2         1 2AD      0.023434
     19 H9          3.0140    1.7640    0.6320 HC         1 2AD      0.080305
     20 H10         1.4900    2.1090    1.4520 HC         1 2AD      0.080305
     21 H11         1.8850    2.9320   -0.0500 HC         1 2AD      0.080305
     22 HN'         1.7840   -1.5890   -1.2630 H          1 2AD      0.423578
     23 HN''        2.1080   -2.3320    0.1160 H          1 2AD      0.423578
@<TRIPOS>BOND
    1     1     2 1
    2     2     5 1
    3     5     7 1
    4     5     9 1
    5     7     8 1
    6     8    11 1
    7     8    16 1
    8     9    11 1
    9     9    14 1
   10    11    13 1
   11     1    15 1
   12     2     3 1
   13     2     4 1
   14     5     6 1
   15     8    18 1
   16     9    10 1
   17    11    12 1
   18    13    22 1
   19    13    23 1
   20    14    17 1
   21    16    19 1
   22    16    20 1
   23    16    21 1
@<TRIPOS>SUBSTRUCTURE
      1 2AD               1 ****               0 ****  **** 
