@<TRIPOS>MOLECULE
modXNA-fragment:A5L:HEAD01:@C5':HEAD01STRIP:@O1,H5:TAIL01:@O3':TAIL01STRIP:@H6:HEAD03:@C1':HEAD03STRIP:@C6,H9,H10,H11
   21    21     1     0     0
SMALL
USER_CHARGES


@<TRIPOS>ATOM
      1 O1          1.8570   -1.4710    0.7840 OH         1 A5L     -0.672010
      2 C5'         2.0750   -0.8220   -0.4320 CI         1 A5L      0.194854
      3 H5'         2.2210   -1.5360   -1.2390 H1         1 A5L      0.020051
      4 H5''        2.9900   -0.2510   -0.3240 H1         1 A5L      0.020051
      5 C4'         0.9300    0.1010   -0.8020 CT         1 A5L      0.014573
      6 H4'         1.1790    0.6500   -1.7070 H1         1 A5L      0.057275
      7 O4'        -0.2100   -0.6980   -1.0340 OS         1 A5L     -0.424091
      8 C1'        -1.3640   -0.0050   -0.6120 CT         1 A5L      0.250833
      9 C3'         0.5220    1.1150    0.2970 CT         1 A5L      0.180523
     10 H3'         1.1640    1.0590    1.1660 H1         1 A5L      0.053149
     11 C2'        -0.8940    0.6850    0.6560 CT         1 A5L      0.114545
     12 F2'        -0.8330   -0.2360    1.6750 F          1 A5L     -0.278880
     13 O3'         0.4370    2.4280   -0.1950 OS         1 A5L     -0.735396
     14 H5          0.9970   -1.8710    0.7640 HO         1 A5L      0.442858
     15 C6         -2.5170   -0.9740   -0.4630 CT         1 A5L     -0.417205
     16 H6          1.3030    2.7610   -0.3860 HO         1 A5L      0.452716
     17 H1'        -1.6100    0.7660   -1.3390 H2         1 A5L      0.046909
     18 H2'        -1.5100    1.5100    0.9810 H1         1 A5L      0.094606
     19 H9         -3.4130   -0.4510   -0.1460 HC         1 A5L      0.153693
     20 H10        -2.2830   -1.7360    0.2680 HC         1 A5L      0.153693
     21 H11        -2.7200   -1.4540   -1.4140 HC         1 A5L      0.153693
@<TRIPOS>BOND
    1     1     2 1
    2     2     5 1
    3     5     7 1
    4     5     9 1
    5     7     8 1
    6     8    11 1
    7     8    15 1
    8     9    11 1
    9     9    13 1
   10    11    12 1
   11     1    14 1
   12     2     3 1
   13     2     4 1
   14     5     6 1
   15     8    17 1
   16     9    10 1
   17    11    18 1
   18    13    16 1
   19    15    19 1
   20    15    20 1
   21    15    21 1
@<TRIPOS>SUBSTRUCTURE
      1 A5L               1 ****               0 ****  **** 
