@<TRIPOS>MOLECULE
modXNA-fragment:A5O:HEAD01:@C5':HEAD01STRIP:@O1,H6:TAIL01:@O3':TAIL01STRIP:@H7:HEAD03:@C1':HEAD03STRIP:@C6,H9,H10,H11
   22    22     1     0     0
SMALL
USER_CHARGES


@<TRIPOS>ATOM
      1 O1          2.2990   -0.7870    1.0720 OH         1 A5O     -0.690520
      2 C5'         2.3650   -0.0510   -0.1160 CI         1 A5O      0.191031
      3 H5'         2.9750   -0.5650   -0.8550 H1         1 A5O      0.030243
      4 H5''        2.8380    0.8940    0.1150 H1         1 A5O      0.030243
      5 C4'         0.9860    0.2010   -0.6970 CT         1 A5O      0.112399
      6 H4'         1.0840    0.7030   -1.6570 H1         1 A5O      0.027734
      7 O4'         0.3400   -1.0460   -0.8560 OS         1 A5O     -0.523479
      8 C1'        -1.0620   -0.9520   -0.6570 CT         1 A5O      0.256007
      9 C3'         0.0430    1.0060    0.1800 CT         1 A5O      0.224179
     10 H3'         0.1820    0.7180    1.2200 H1         1 A5O      0.017915
     11 C2'        -1.3150    0.5310   -0.3130 CT         1 A5O      0.119537
     12 O2'        -2.3790    0.7900    0.5570 OH         1 A5O     -0.679427
     13 H2'        -1.5500    1.0780   -1.2170 H1         1 A5O      0.082542
     14 O3'         0.2740    2.3730    0.0110 OS         1 A5O     -0.729079
     15 H6          1.8760   -1.6130    0.8730 HO         1 A5O      0.432188
     16 C6         -1.4810   -1.9430    0.4170 CT         1 A5O     -0.226241
     17 H7         -0.3580    2.8620    0.5210 HO         1 A5O      0.447607
     18 H1'        -1.5540   -1.2150   -1.5860 H2         1 A5O      0.007555
     19 H9         -2.5580   -1.9400    0.5490 HC         1 A5O      0.077877
     20 H10        -1.0090   -1.7220    1.3710 HC         1 A5O      0.077877
     21 H11        -1.1780   -2.9420    0.1250 HC         1 A5O      0.077877
     22 HO2'       -2.2360    0.3530    1.3860 HO         1 A5O      0.416521
@<TRIPOS>BOND
    1     1     2 1
    2     2     5 1
    3     5     7 1
    4     5     9 1
    5     7     8 1
    6     8    11 1
    7     8    16 1
    8     9    11 1
    9     9    14 1
   10    11    12 1
   11     1    15 1
   12     2     3 1
   13     2     4 1
   14     5     6 1
   15     8    18 1
   16     9    10 1
   17    11    13 1
   18    12    22 1
   19    14    17 1
   20    16    19 1
   21    16    20 1
   22    16    21 1
@<TRIPOS>SUBSTRUCTURE
      1 A5O               1 ****               0 ****  **** 
