@<TRIPOS>MOLECULE
modXNA-fragment:A9Z:HEAD01:@C5':HEAD01STRIP:@O1,H1:TAIL01:@O3':TAIL01STRIP:@H11:HEAD03:@C1':HEAD03STRIP:@C4,H6,H7,H8
   33    34     1     0     0
SMALL
USER_CHARGES


@<TRIPOS>ATOM
      1 O1          3.1370   -1.0420   -1.7190 OH         1 A9Z     -0.679341
      2 H1          3.7670   -1.2190   -2.4030 HO         1 A9Z      0.449849
      3 C5'         3.7840   -0.9700   -0.4760 CI         1 A9Z      0.093465
      4 H5'         4.6750   -0.3530   -0.5330 H1         1 A9Z      0.031050
      5 H5''        4.0770   -1.9640   -0.1400 H1         1 A9Z      0.031050
      6 C4'         2.8410   -0.3550    0.5400 CT         1 A9Z      0.172623
      7 H4'         3.2790   -0.4740    1.5280 H1         1 A9Z      0.018289
      8 O4'         2.6910    1.0140    0.2570 OS         1 A9Z     -0.489454
      9 C1'         1.3330    1.4010    0.2740 CT         1 A9Z      0.413042
     10 H1'         1.0290    1.6290    1.2870 H2         1 A9Z     -0.007044
     11 C4          1.1520    2.6120   -0.6170 CT         1 A9Z     -0.414556
     12 H6          0.1140    2.9250   -0.6200 HC         1 A9Z      0.143522
     13 H7          1.4610    2.3870   -1.6320 HC         1 A9Z      0.143522
     14 H8          1.7560    3.4340   -0.2500 HC         1 A9Z      0.143522
     15 C3'         1.4230   -0.9620    0.5400 CT         1 A9Z      0.197117
     16 H3'         1.3860   -1.9130    0.0220 H1         1 A9Z      0.035991
     17 C2'         0.6340    0.1230   -0.1970 CT         1 A9Z     -0.304034
     18 H2'         0.8150    0.0060   -1.2570 H1         1 A9Z      0.152362
     19 O3'         0.8980   -1.0800    1.8310 OS         1 A9Z     -0.644079
     20 H11         1.3250   -1.7870    2.2940 HO         1 A9Z      0.412277
     21 N1'        -0.7940    0.0880    0.0170 N*         1 A9Z      0.646711
     22 N2'        -1.3950    0.8720    0.8840 NB         1 A9Z     -0.249810
     23 N3'        -2.6330    0.5970    0.8900 NB         1 A9Z     -0.395140
     24 C7'        -2.8780   -0.4070    0.0130 CT         1 A9Z      0.349873
     25 C8'        -4.2570   -0.9510   -0.2130 CT         1 A9Z     -0.134519
     26 C6'        -1.6900   -0.7390   -0.5550 CW         1 A9Z     -0.515361
     27 H6'        -1.4160   -1.4630   -1.2920 H1         1 A9Z      0.278123
     28 C9'        -5.2010    0.0640   -0.8640 CT         1 A9Z     -0.005132
     29 H8'        -4.1890   -1.8410   -0.8310 H1         1 A9Z      0.061954
     30 H8''       -4.6690   -1.2650    0.7410 H1         1 A9Z      0.061954
     31 H9'1       -6.1940   -0.3580   -0.9860 H1         1 A9Z      0.012460
     32 H9'2       -5.2830    0.9550   -0.2530 H1         1 A9Z      0.012460
     33 H9'3       -4.8370    0.3610   -1.8430 H1         1 A9Z      0.012460
@<TRIPOS>BOND
    1     1     3 1
    2     3     6 1
    3     6     8 1
    4     6    15 1
    5     8     9 1
    6     9    11 1
    7     9    17 1
    8    15    17 1
    9    15    19 1
   10    17    21 1
   11    21    22 1
   12    21    26 1
   13    22    23 1
   14    23    24 1
   15    24    25 1
   16    24    26 1
   17    25    28 1
   18     1     2 1
   19     3     4 1
   20     3     5 1
   21     6     7 1
   22     9    10 1
   23    11    12 1
   24    11    13 1
   25    11    14 1
   26    15    16 1
   27    17    18 1
   28    19    20 1
   29    25    29 1
   30    25    30 1
   31    26    27 1
   32    28    31 1
   33    28    32 1
   34    28    33 1
@<TRIPOS>SUBSTRUCTURE
      1 A9Z               1 ****               0 ****  **** 
