@<TRIPOS>MOLECULE
modXNA-fragment:aDX:HEAD01:@C5':HEAD01STRIP:@O5',HHO5:TAIL01:@O3':TAIL01STRIP:@HO10:HEAD03:@C1':HEAD03STRIP:@C8,H81,H82,H83
   21    21     1     0     0
SMALL
USER_CHARGES


@<TRIPOS>ATOM
      1 O5'        -2.5150   -0.6340   -0.6380 OH         1 aDX     -0.682624
      2 C1'         1.5480   -0.0960   -0.5030 CT         1 aDX      0.535418
      3 C2'         1.2670    1.1620    0.3450 CT         1 aDX     -0.494875
      4 C3'        -0.2410    1.0900    0.5780 CT         1 aDX      0.430095
      5 C4'        -0.4310   -0.4240    0.6660 CT         1 aDX      0.038579
      6 C5'        -1.8380   -0.9880    0.5310 CT         1 aDX      0.286379
      7 O4'         0.3970   -0.9140   -0.3600 OS         1 aDX     -0.489901
      8 C8          2.7970   -0.8600   -0.0980 CT         1 aDX     -0.226891
      9 H2'1        1.5550    2.0820   -0.1490 HC         1 aDX      0.119714
     10 O3'        -0.9640    1.6650   -0.4840 OS         1 aDX     -0.701474
     11 H4'        -0.0550   -0.7560    1.6360 H1         1 aDX      0.014894
     12 H5'1       -2.4050   -0.6950    1.4140 H1         1 aDX      0.015372
     13 H5'2       -1.7680   -2.0670    0.5300 H1         1 aDX      0.015372
     14 H2'2        1.7930    1.1090    1.2930 HC         1 aDX      0.119714
     15 HHO5       -2.6750    0.3000   -0.6240 HO         1 aDX      0.430169
     16 H1'         1.6190    0.1620   -1.5550 H1         1 aDX     -0.020829
     17 H81         3.6810   -0.2410   -0.2230 HC         1 aDX      0.053610
     18 H82         2.9110   -1.7480   -0.7090 HC         1 aDX      0.053610
     19 H83         2.7390   -1.1670    0.9410 HC         1 aDX      0.053610
     20 H3'        -0.5600    1.6090    1.4710 H1         1 aDX      0.026330
     21 HO10       -0.7880    1.1720   -1.2770 HO         1 aDX      0.423726
@<TRIPOS>BOND
    1     1     6 1
    2     2     3 1
    3     2     7 1
    4     2     8 1
    5     3     4 1
    6     4     5 1
    7     4    10 1
    8     5     6 1
    9     5     7 1
   10     1    15 1
   11     2    16 1
   12     3     9 1
   13     3    14 1
   14     4    20 1
   15     5    11 1
   16     6    12 1
   17     6    13 1
   18     8    17 1
   19     8    18 1
   20     8    19 1
   21    10    21 1
@<TRIPOS>SUBSTRUCTURE
      1 aDX               1 ****               0 ****  **** 
