@<TRIPOS>MOLECULE
modXNA-fragment:AF2:HEAD01:@C5':HEAD01STRIP:@O1,H6:TAIL01:@O3':TAIL01STRIP:@H7:HEAD03:@C1':HEAD03STRIP:@C6,H9,H10,H11
   21    21     1     0     0
SMALL
USER_CHARGES


@<TRIPOS>ATOM
      1 O1          2.4730   -0.7080    0.6300 OH         1 AF2     -0.667700
      2 C5'         2.2150    0.0060   -0.5490 CI         1 AF2      0.127996
      3 H5'         2.5640   -0.5430   -1.4200 H1         1 AF2      0.021861
      4 H5''        2.7070    0.9750   -0.5340 H1         1 AF2      0.021861
      5 C4'         0.7250    0.2280   -0.6900 CT         1 AF2      0.185083
      6 H4'         0.5540    0.8800   -1.5420 H1         1 AF2      0.039114
      7 O4'         0.0720   -1.0020   -0.8770 OS         1 AF2     -0.533211
      8 C1'        -1.2200   -1.0040   -0.3000 CT         1 AF2      0.338689
      9 C3'         0.0440    0.8400    0.5280 CT         1 AF2      0.271082
     10 H3'         0.4390    0.3780    1.4260 H1         1 AF2     -0.001111
     11 C2'        -1.3930    0.3780    0.3260 CT         1 AF2      0.027716
     12 H2'        -1.9980    0.3770    1.2240 H1         1 AF2      0.066205
     13 F2'        -2.0060    1.2130   -0.5750 F          1 AF2     -0.264791
     14 O3'         0.2370    2.2190    0.5390 OS         1 AF2     -0.710342
     15 H6          3.3890   -0.9390    0.6670 HO         1 AF2      0.435649
     16 C6         -1.3260   -2.1570    0.6850 CT         1 AF2     -0.363283
     17 H7         -0.1310    2.5980    1.3250 HO         1 AF2      0.440147
     18 H1'        -1.9560   -1.1170   -1.0870 H2         1 AF2      0.013009
     19 H9         -2.3300   -2.2280    1.0930 HC         1 AF2      0.122306
     20 H10        -0.6220   -2.0380    1.5020 HC         1 AF2      0.122306
     21 H11        -1.0930   -3.0870    0.1810 HC         1 AF2      0.122306
@<TRIPOS>BOND
    1     1     2 1
    2     2     5 1
    3     5     7 1
    4     5     9 1
    5     7     8 1
    6     8    11 1
    7     8    16 1
    8     9    11 1
    9     9    14 1
   10    11    13 1
   11     1    15 1
   12     2     3 1
   13     2     4 1
   14     5     6 1
   15     8    18 1
   16     9    10 1
   17    11    12 1
   18    14    17 1
   19    16    19 1
   20    16    20 1
   21    16    21 1
@<TRIPOS>SUBSTRUCTURE
      1 AF2               1 ****               0 ****  **** 
