@<TRIPOS>MOLECULE
modXNA-fragment:aXX:HEAD01:@C5':HEAD01STRIP:@O5',HHO5:TAIL01:@O3':TAIL01STRIP:@HHO3:HEAD03:@C1':HEAD03STRIP:@C10,H101,H102,H103
   21    21     1     0     0
SMALL
USER_CHARGES


@<TRIPOS>ATOM
      1 O5'         1.8900   -1.5090    0.8330 OH         1 aXX     -0.668441
      2 O3'         0.8700    2.3190   -0.1900 OH         1 aXX     -0.761716
      3 C1'        -1.4230   -0.3980    0.3450 CT         1 aXX      0.494717
      4 C2'        -1.0880    1.0850    0.4640 CT         1 aXX     -0.511800
      5 C3'         0.4210    1.0800    0.2890 CT         1 aXX      0.546519
      6 C4'         0.6350   -0.0820   -0.7000 CT         1 aXX      0.127436
      7 C5'         1.8660   -0.9410   -0.4510 CT         1 aXX      0.204007
      8 O4'        -0.5200   -0.8790   -0.6310 OS         1 aXX     -0.475402
      9 H2'1       -1.5310    1.6430   -0.3550 HC         1 aXX      0.152366
     10 C10        -2.8400   -0.7160   -0.0900 CT         1 aXX     -0.254542
     11 H2'2       -1.4100    1.5290    1.3990 HC         1 aXX      0.152366
     12 H3'         0.8960    0.8590    1.2420 H1         1 aXX     -0.074878
     13 H4'         0.7100    0.3380   -1.7000 H1         1 aXX      0.011059
     14 H5'1        2.7660   -0.3550   -0.6380 H1         1 aXX      0.022028
     15 H5'2        1.8590   -1.7620   -1.1550 H1         1 aXX      0.022028
     16 HHO5        2.3360   -0.9350    1.4380 HO         1 aXX      0.425309
     17 H1'        -1.2130   -0.8990    1.2880 H1         1 aXX     -0.029301
     18 H101       -3.5540   -0.3710    0.6520 HC         1 aXX      0.062815
     19 H102       -2.9640   -1.7860   -0.2110 HC         1 aXX      0.062815
     20 H103       -3.0620   -0.2370   -1.0370 HC         1 aXX      0.062815
     21 HHO3        1.8160    2.3530   -0.1720 HO         1 aXX      0.429798
@<TRIPOS>BOND
    1     1     7 1
    2     2     5 1
    3     3     4 1
    4     3     8 1
    5     3    10 1
    6     4     5 1
    7     5     6 1
    8     6     7 1
    9     6     8 1
   10     1    16 1
   11     2    21 1
   12     3    17 1
   13     4     9 1
   14     4    11 1
   15     5    12 1
   16     6    13 1
   17     7    14 1
   18     7    15 1
   19    10    18 1
   20    10    19 1
   21    10    20 1
@<TRIPOS>SUBSTRUCTURE
      1 aXX               1 ****               0 ****  **** 
