@<TRIPOS>MOLECULE
modXNA-fragment:bLD:HEAD01:@C5':HEAD01STRIP:@O10,HO10:TAIL01:@O3':TAIL01STRIP:@HO9:HEAD03:@C1':HEAD03STRIP:@C7,H71,H72,H73
   21    21     1     0     0
SMALL
USER_CHARGES


@<TRIPOS>ATOM
      1 C1'         1.7790   -0.1710   -0.4420 CT         1 bLD      0.569564
      2 C2'         1.1770    1.2240   -0.1620 CT         1 bLD     -0.568239
      3 C3'        -0.2350    0.9010    0.3260 CT         1 bLD      0.468002
      4 C4'        -0.5210   -0.4090   -0.4050 CT         1 bLD      0.084386
      5 O4'         0.6990   -1.0870   -0.3310 OS         1 bLD     -0.573972
      6 H1'         2.1600   -0.2190   -1.4580 H1         1 bLD     -0.018146
      7 C7          2.8710   -0.5970    0.5220 CT         1 bLD     -0.318932
      8 H2'1        1.1210    1.8130   -1.0730 HC         1 bLD      0.139493
      9 O3'        -1.1990    1.9000    0.1410 OS         1 bLD     -0.731762
     10 C5'        -1.6240   -1.2570    0.2010 CT         1 bLD      0.310451
     11 H2'2        1.7520    1.7940    0.5580 HC         1 bLD      0.139493
     12 H3'        -0.2240    0.7090    1.3920 H1         1 bLD      0.049541
     13 HO9        -1.2490    2.1340   -0.7770 HO         1 bLD      0.428192
     14 H4'        -0.7820   -0.1920   -1.4440 H1         1 bLD      0.039286
     15 H101       -1.6790   -2.2070   -0.3130 H1         1 bLD      0.018836
     16 O10        -2.8720   -0.6410    0.0550 OH         1 bLD     -0.708486
     17 H102       -1.3930   -1.4570    1.2450 H1         1 bLD      0.018836
     18 HO10       -2.8390    0.2330    0.4230 HO         1 bLD      0.422823
     19 H71         3.7470    0.0340    0.4110 HC         1 bLD      0.076878
     20 H72         3.1600   -1.6230    0.3290 HC         1 bLD      0.076878
     21 H73         2.5230   -0.5290    1.5480 HC         1 bLD      0.076878
@<TRIPOS>BOND
    1     1     2 1
    2     1     5 1
    3     1     7 1
    4     2     3 1
    5     3     4 1
    6     3     9 1
    7     4     5 1
    8     4    10 1
    9    10    16 1
   10     1     6 1
   11     2     8 1
   12     2    11 1
   13     3    12 1
   14     4    14 1
   15     7    19 1
   16     7    20 1
   17     7    21 1
   18     9    13 1
   19    10    15 1
   20    10    17 1
   21    16    18 1
@<TRIPOS>SUBSTRUCTURE
      1 bLD               1 ****               0 ****  **** 
