@<TRIPOS>MOLECULE
modXNA-fragment:bYX:HEAD01:@C5':HEAD01STRIP:@O11,HO11:TAIL01:@O3':TAIL01STRIP:@HHO3:HEAD03:@C1':HEAD03STRIP:@C7,H71,H72,H73
   21    21     1     0     0
SMALL
USER_CHARGES


@<TRIPOS>ATOM
      1 O3'         1.1100    2.1400   -0.4010 OH         1 bYX     -0.732097
      2 C1'        -1.6070   -0.1030    0.3480 CT         1 bYX      0.421090
      3 C2'        -1.0840    1.1610   -0.3210 CT         1 bYX     -0.216100
      4 C3'         0.2470    1.3680    0.3860 CT         1 bYX      0.360176
      5 C4'         0.7230   -0.0780    0.6350 CT         1 bYX      0.029044
      6 O4'        -0.4470   -0.8750    0.6070 OS         1 bYX     -0.490705
      7 C7         -2.5820   -0.9270   -0.4700 CT         1 bYX     -0.447529
      8 H2'1       -1.7520    2.0080   -0.2220 HC         1 bYX      0.081764
      9 H3'         0.0770    1.8590    1.3400 H1         1 bYX     -0.012603
     10 C5'         1.6810   -0.6190   -0.4160 CT         1 bYX      0.366983
     11 HHO3        1.8480    2.4320    0.1160 HO         1 bYX      0.436852
     12 H1'        -2.0680    0.1520    1.3010 H1         1 bYX     -0.009882
     13 H2'2       -0.9010    0.9920   -1.3780 HC         1 bYX      0.081764
     14 H4'         1.1830   -0.1920    1.6120 H1         1 bYX      0.047325
     15 H71        -3.4910   -0.3650   -0.6600 HC         1 bYX      0.117363
     16 H72        -2.8470   -1.8350    0.0600 HC         1 bYX      0.117363
     17 H73        -2.1400   -1.2030   -1.4220 HC         1 bYX      0.117363
     18 H101        1.2690   -0.4630   -1.4090 H1         1 bYX      0.003120
     19 O11         1.9390   -1.9740   -0.1860 OH         1 bYX     -0.703458
     20 H102        2.6310   -0.1040   -0.3680 H1         1 bYX      0.003120
     21 HO11        1.1040   -2.4160   -0.1000 HO         1 bYX      0.429048
@<TRIPOS>BOND
    1     1     4 1
    2     2     3 1
    3     2     6 1
    4     2     7 1
    5     3     4 1
    6     4     5 1
    7     5     6 1
    8     5    10 1
    9    10    19 1
   10     1    11 1
   11     2    12 1
   12     3     8 1
   13     3    13 1
   14     4     9 1
   15     5    14 1
   16     7    15 1
   17     7    16 1
   18     7    17 1
   19    10    18 1
   20    10    20 1
   21    19    21 1
@<TRIPOS>SUBSTRUCTURE
      1 bYX               1 ****               0 ****  **** 
