@<TRIPOS>MOLECULE
modXNA-fragment:CET:HEAD01:@C5':HEAD01STRIP:@O1,H5:TAIL01:@O3':TAIL01STRIP:@H6:HEAD03:@C1':HEAD03STRIP:@C7,H8,H9,H10
   26    27     1     0     0
SMALL
USER_CHARGES


@<TRIPOS>ATOM
      1 O1         -0.7210    2.8140    0.0520 OH         1 CET     -0.685618
      2 C5'        -1.2870    1.6220   -0.4090 CI         1 CET      0.243083
      3 H5'        -1.5090    1.7850   -1.4550 H1         1 CET     -0.000753
      4 H5''       -2.2270    1.4140    0.0980 H1         1 CET     -0.000753
      5 C4'        -0.3780    0.4180   -0.2780 CT         1 CET      0.115892
      6 C6'        -0.9010   -0.9140   -0.8650 CT         1 CET      0.223897
      7 O4'         0.8590    0.6700   -0.9190 OS         1 CET     -0.477188
      8 C1'         1.7700   -0.3620   -0.5310 CT         1 CET      0.209074
      9 C3'         0.1170   -0.0270    1.1090 CT         1 CET      0.151821
     10 H3'         0.7420    0.7320    1.5670 H1         1 CET      0.032792
     11 C2'         0.9300   -1.1500    0.4780 CT         1 CET      0.023305
     12 H2'         1.4610   -1.8210    1.1350 H1         1 CET      0.139714
     13 O6'        -0.0350   -1.8680   -0.2540 OS         1 CET     -0.451352
     14 O3'        -0.8350   -0.5100    2.0040 OS         1 CET     -0.641176
     15 H5         -0.5270    2.7530    0.9760 HO         1 CET      0.419631
     16 C7          3.0710    0.2390   -0.0300 CT         1 CET     -0.300028
     17 H6         -1.2820    0.2110    2.4260 HO         1 CET      0.418120
     18 H1'         1.9700   -0.9920   -1.3900 H2         1 CET      0.065408
     19 H8          3.7940   -0.5440    0.1780 HC         1 CET      0.105036
     20 H9          2.9310    0.8260    0.8700 HC         1 CET      0.105036
     21 H10         3.4850    0.8910   -0.7900 HC         1 CET      0.105036
     22 C7'        -2.3490   -1.3130   -0.6350 CT         1 CET     -0.089849
     23 H6'        -0.7010   -0.8960   -1.9320 H1         1 CET      0.016274
     24 H7'1       -2.4970   -2.3160   -1.0200 HC         1 CET      0.026658
     25 H7'2       -3.0230   -0.6500   -1.1700 HC         1 CET      0.026658
     26 H7'3       -2.6010   -1.3130    0.4150 HC         1 CET      0.026658
@<TRIPOS>BOND
    1     1     2 1
    2     2     5 1
    3     5     6 1
    4     5     7 1
    5     5     9 1
    6     6    13 1
    7     6    22 1
    8     7     8 1
    9     8    11 1
   10     8    16 1
   11     9    11 1
   12     9    14 1
   13    11    13 1
   14     1    15 1
   15     2     3 1
   16     2     4 1
   17     6    23 1
   18     8    18 1
   19     9    10 1
   20    11    12 1
   21    14    17 1
   22    16    19 1
   23    16    20 1
   24    16    21 1
   25    22    24 1
   26    22    25 1
   27    22    26 1
@<TRIPOS>SUBSTRUCTURE
      1 CET               1 ****               0 ****  **** 
