@<TRIPOS>MOLECULE
modXNA-fragment:DBO:HEAD01:@C5':HEAD01STRIP:@O1,H6:TAIL01:@O3':TAIL01STRIP:@H7:HEAD03:@C1':HEAD03STRIP:@C6,H9,H10,H11
   35    36     1     0     0
SMALL
USER_CHARGES


@<TRIPOS>ATOM
      1 O1          3.7220    0.5500    1.7120 OH         1 DBO     -0.725041
      2 C5'         4.1540    0.9810    0.4490 CI         1 DBO      0.140025
      3 H5'         4.3090    2.0590    0.4440 H1         1 DBO      0.014386
      4 H5''        5.0890    0.5030    0.1710 H1         1 DBO      0.014386
      5 C4'         3.1070    0.6200   -0.5860 CT         1 DBO      0.168437
      6 H4'         3.3730    1.1110   -1.5190 H1         1 DBO      0.010018
      7 O4'         3.1100   -0.7730   -0.7770 OS         1 DBO     -0.489468
      8 C1'         1.8010   -1.2950   -0.7280 CT         1 DBO      0.279200
      9 C3'         1.6670    1.0180   -0.2000 CT         1 DBO      0.110285
     10 H3'         1.6560    1.7350    0.6120 H1         1 DBO      0.045104
     11 C2'         1.0650   -0.3360    0.1990 CT         1 DBO      0.073696
     12 H2'         1.3470   -0.5420    1.2280 H1         1 DBO      0.089780
     13 O3'         0.9420    1.5110   -1.2970 OS         1 DBO     -0.615651
     14 H6          4.4400    0.5810    2.3280 HO         1 DBO      0.462926
     15 C6          1.8480   -2.7350   -0.2630 CT         1 DBO     -0.238931
     16 H7          1.2910    2.3520   -1.5560 HO         1 DBO      0.406924
     17 H1'         1.3410   -1.2340   -1.7110 H2         1 DBO      0.026880
     18 O2'        -0.3040   -0.4700    0.0210 OS         1 DBO     -0.326526
     19 H9          0.8420   -3.1340   -0.1900 HC         1 DBO      0.083015
     20 H10         2.3260   -2.8020    0.7080 HC         1 DBO      0.083015
     21 H11         2.4100   -3.3420   -0.9630 HC         1 DBO      0.083015
     22 C6'        -1.1090    0.2570    0.9040 CT         1 DBO     -0.020027
     23 H6'        -0.9930   -0.1240    1.9170 H1         1 DBO      0.065547
     24 H6''       -0.8060    1.3000    0.9100 H1         1 DBO      0.065547
     25 C7'        -2.5500    0.1540    0.4680 CA         1 DBO      0.098910
     26 C81'       -2.8880    0.3640   -0.8660 CA         1 DBO     -0.137906
     27 H81'       -2.1090    0.5630   -1.5780 HA         1 DBO      0.133855
     28 C91'       -4.2100    0.3070   -1.2690 CA         1 DBO     -0.100990
     29 H91'       -4.4600    0.4680   -2.3020 HA         1 DBO      0.135997
     30 C10'       -5.2130    0.0450   -0.3450 CA         1 DBO     -0.122574
     31 H10'       -6.2400    0.0010   -0.6610 HA         1 DBO      0.137416
     32 C92'       -4.8840   -0.1640    0.9810 CA         1 DBO     -0.100990
     33 H92'       -5.6530   -0.3730    1.7030 HA         1 DBO      0.135997
     34 C82'       -3.5560   -0.1130    1.3830 CA         1 DBO     -0.137906
     35 H82'       -3.3070   -0.2860    2.4160 HA         1 DBO      0.133855
@<TRIPOS>BOND
    1     1     2 1
    2     2     5 1
    3     5     7 1
    4     5     9 1
    5     7     8 1
    6     8    11 1
    7     8    15 1
    8     9    11 1
    9     9    13 1
   10    11    18 1
   11    18    22 1
   12    22    25 1
   13    25    26 1
   14    25    34 1
   15    26    28 1
   16    28    30 1
   17    30    32 1
   18    32    34 1
   19     1    14 1
   20     2     3 1
   21     2     4 1
   22     5     6 1
   23     8    17 1
   24     9    10 1
   25    11    12 1
   26    13    16 1
   27    15    19 1
   28    15    20 1
   29    15    21 1
   30    22    23 1
   31    22    24 1
   32    26    27 1
   33    28    29 1
   34    30    31 1
   35    32    33 1
   36    34    35 1
@<TRIPOS>SUBSTRUCTURE
      1 DBO               1 ****               0 ****  **** 
