@<TRIPOS>MOLECULE
modXNA-fragment:DC2:HEAD01:@C5':HEAD01STRIP:@O1,H6:TAIL01:@O3':TAIL01STRIP:@H7:HEAD03:@C1':HEAD03STRIP:@C6,H10,H11,H12
   21    21     1     0     0
SMALL
resp


@<TRIPOS>ATOM
      1 O1          -1.6740     1.5490     0.7990 OH         1 DC2      -0.652921
      2 C5'         -1.8840     0.8600    -0.4060 CJ         1 DC2      -0.006900
      3 H5'         -1.8990     1.6040    -1.1900 H1         1 DC2       0.075400
      4 H5''        -2.8510     0.3600    -0.4020 H1         1 DC2       0.075400
      5 C4'         -0.7910    -0.1490    -0.7280 CT         1 DC2       0.162900
      6 H4'         -1.1020    -0.7030    -1.6130 H1         1 DC2       0.117600
      7 O4'          0.4020     0.5340    -1.0090 OS         1 DC2      -0.369100
      8 C1'          1.4780     0.0560    -0.2260 CT         1 DC2       0.043100
      9 C3'         -0.4660    -1.1380     0.4090 C7         1 DC2       0.071300
     10 H3'         -1.2760    -1.2130     1.1320 H1         1 DC2       0.098500
     11 C2'          0.8030    -0.5470     1.0040 CT         1 DC2      -0.085400
     12 H2'          0.5540     0.2380     1.7080 HC         1 DC2       0.071800
     13 O3'         -0.1480    -2.4180    -0.0780 OS         1 DC2      -0.523200
     14 H6          -2.0250     1.0510     1.5230 HO         1 DC2       0.416782
     15 C6           2.4320     1.2000     0.0500 CT         1 DC2      -0.234687
     16 H7          -0.8860    -2.7790    -0.5500 HO         1 DC2       0.424083
     17 H1'          1.9910    -0.7280    -0.7770 H2         1 DC2       0.183800
     18 H2''         1.4000    -1.3010     1.5000 HC         1 DC2       0.071800
     19 H10          3.2710     0.8610     0.6500 HC         1 DC2       0.055459
     20 H11          1.9200     1.9960     0.5790 HC         1 DC2       0.055459
     21 H12          2.8190     1.6030    -0.8790 HC         1 DC2       0.055459
@<TRIPOS>BOND
     1     1     2 1   
     2     1    14 1   
     3     2     3 1   
     4     2     4 1   
     5     2     5 1   
     6     5     6 1   
     7     5     7 1   
     8     5     9 1   
     9     7     8 1   
    10     8    11 1   
    11     8    15 1   
    12     8    17 1   
    13     9    10 1   
    14     9    11 1   
    15     9    13 1   
    16    11    12 1   
    17    11    18 1   
    18    13    16 1   
    19    15    19 1   
    20    15    20 1   
    21    15    21 1   
@<TRIPOS>SUBSTRUCTURE
     1 DC2         1 TEMP              0 ****  ****    0 ROOT
