@<TRIPOS>MOLECULE
modXNA-fragment:DDD:HEAD01:@C5':HEAD01STRIP:@O5',P,OP1,OP2,OP3,H20:TAIL01:@O3':TAIL01STRIP:@P2,O12,O15,O16,H24:HEAD03:@C1':HEAD03STRIP:@C12,H21,H22,H23
   29    29     1     0     0
SMALL
USER_CHARGES


@<TRIPOS>ATOM
      1 P           3.3120    0.8260    0.2850 P          1 DDD      1.357695
      2 OP1         3.6570    0.4210    1.6600 O2         1 DDD     -0.844048
      3 OP2         3.8210    2.0600   -0.3390 O2         1 DDD     -0.844048
      4 O5'         1.6640    0.7980    0.2240 OS         1 DDD     -0.521429
      5 O3'        -2.2180    0.1650   -0.7670 OS         1 DDD     -0.522241
      6 C1'         0.2200   -2.4400   -0.1910 CT         1 DDD      0.383655
      7 C2'        -1.2130   -1.9410   -0.0230 CT         1 DDD     -0.330047
      8 C3'        -1.0840   -0.4310   -0.2080 C7         1 DDD      0.254753
      9 C4'         0.0840   -0.3150   -1.1950 CT         1 DDD      0.066591
     10 C5'         0.9900    0.8930   -0.9940 CJ         1 DDD      0.148110
     11 O4'         0.8360   -1.5150   -1.0720 OS         1 DDD     -0.490259
     12 C12         1.0120   -2.5340    1.1080 CT         1 DDD     -0.293809
     13 H1'         0.2430   -3.4090   -0.6840 H2         1 DDD     -0.060446
     14 H2'        -1.8440   -2.3190   -0.8220 HC         1 DDD      0.116231
     15 H2''       -1.6690   -2.2070    0.9200 HC         1 DDD      0.116231
     16 H3'        -0.8200    0.0460    0.7280 H1         1 DDD      0.052484
     17 H4'        -0.3370   -0.2720   -2.1970 H1         1 DDD      0.044462
     18 H5'         1.6860    0.9680   -1.8200 H1         1 DDD      0.017730
     19 H5''        0.3690    1.7850   -1.0000 H1         1 DDD      0.017730
     20 OP3         3.6120   -0.3960   -0.7630 OH         1 DDD     -0.736711
     21 H20         2.9190   -1.0440   -0.7120 HO         1 DDD      0.395040
     22 H21         0.5560   -3.2640    1.7750 HC         1 DDD      0.087628
     23 H22         1.0620   -1.5760    1.6110 HC         1 DDD      0.087628
     24 H23         2.0320   -2.8460    0.9090 HC         1 DDD      0.087628
     25 P2         -3.5100    0.5750    0.1540 P          1 DDD      1.280167
     26 O12        -4.6060    0.8720   -0.7750 O2         1 DDD     -0.822080
     27 O15        -2.9840    1.9790    0.8140 OH         1 DDD     -0.713044
     28 O16        -3.6100   -0.3910    1.2730 O2         1 DDD     -0.822080
     29 H24        -2.6520    1.7830    1.6800 HO         1 DDD      0.397510
@<TRIPOS>BOND
    1     1     2 1
    2     1     3 1
    3     1     4 1
    4     1    20 1
    5     4    10 1
    6     5     8 1
    7     5    25 1
    8     6     7 1
    9     6    11 1
   10     6    12 1
   11     7     8 1
   12     8     9 1
   13     9    10 1
   14     9    11 1
   15    25    26 1
   16    25    27 1
   17    25    28 1
   18     6    13 1
   19     7    14 1
   20     7    15 1
   21     8    16 1
   22     9    17 1
   23    10    18 1
   24    10    19 1
   25    12    22 1
   26    12    23 1
   27    12    24 1
   28    20    21 1
   29    27    29 1
@<TRIPOS>SUBSTRUCTURE
      1 DDD               1 ****               0 ****  **** 
