@<TRIPOS>MOLECULE
modXNA-fragment:DMP:HEAD01:@C5':HEAD01STRIP:@O1,H6:TAIL01:@O3':TAIL01STRIP:@H7:HEAD03:@C1':HEAD03STRIP:@C6,H9,H10,H11
   34    35     1     0     0
SMALL
USER_CHARGES


@<TRIPOS>ATOM
      1 O1          3.6850    1.3200    1.2720 OH         1 DMP     -0.719745
      2 C5'         4.1650    1.0700   -0.0220 CI         1 DMP      0.140319
      3 H5'         4.3440    2.0060   -0.5510 H1         1 DMP      0.016292
      4 H5''        5.0960    0.5130    0.0070 H1         1 DMP      0.016292
      5 C4'         3.1410    0.2520   -0.7840 CT         1 DMP      0.150909
      6 H4'         3.4450    0.2180   -1.8280 H1         1 DMP      0.017103
      7 O4'         3.1190   -1.0550   -0.2650 OS         1 DMP     -0.478987
      8 C1'         1.7990   -1.4780   -0.0070 CT         1 DMP      0.259160
      9 C3'         1.7000    0.7940   -0.6950 CT         1 DMP      0.148922
     10 H3'         1.6810    1.8210   -0.3450 H1         1 DMP      0.035830
     11 C2'         1.0620   -0.1810    0.3010 CT         1 DMP      0.050527
     12 H2'         1.3110    0.1470    1.3060 H1         1 DMP      0.095480
     13 O3'         1.0130    0.6800   -1.9140 OH         1 DMP     -0.635423
     14 H6          4.3840    1.6440    1.8210 HO         1 DMP      0.461342
     15 C6          1.8050   -2.4990    1.1110 CT         1 DMP     -0.240263
     16 H7          1.3900    1.2710   -2.5500 HO         1 DMP      0.409217
     17 H1'         1.3660   -1.9080   -0.9050 H2         1 DMP      0.041424
     18 O2'        -0.3070   -0.3770    0.1710 OS         1 DMP     -0.298628
     19 H9          0.7910   -2.8060    1.3400 HC         1 DMP      0.085452
     20 H10         2.2580   -2.0790    2.0030 HC         1 DMP      0.085452
     21 H11         2.3740   -3.3760    0.8200 HC         1 DMP      0.085452
     22 C6'        -1.1130    0.7020    0.5300 CT         1 DMP     -0.051869
     23 H6'        -0.9690    0.9500    1.5800 H1         1 DMP      0.071126
     24 H6''       -0.8520    1.5800   -0.0550 H1         1 DMP      0.071126
     25 C7'        -2.5610    0.3640    0.2770 CA         1 DMP      0.384622
     26 C82'       -2.9390   -0.5240   -0.7180 CA         1 DMP     -0.459010
     27 H82'       -2.2000   -1.0260   -1.3120 HA         1 DMP      0.193715
     28 C92'       -4.2880   -0.7540   -0.9240 CA         1 DMP      0.372958
     29 H92'       -4.6050   -1.4410   -1.6890 HA         1 DMP      0.036490
     30 N10'       -5.2520   -0.1730   -0.2300 NC         1 DMP     -0.712400
     31 C91'       -4.8870    0.6730    0.7160 CA         1 DMP      0.372958
     32 H91'       -5.6830    1.1340    1.2740 HA         1 DMP      0.036490
     33 C81'       -3.5690    0.9730    1.0100 CA         1 DMP     -0.459010
     34 H81'       -3.3410    1.6660    1.8010 HA         1 DMP      0.193715
@<TRIPOS>BOND
    1     1     2 1
    2     2     5 1
    3     5     7 1
    4     5     9 1
    5     7     8 1
    6     8    11 1
    7     8    15 1
    8     9    11 1
    9     9    13 1
   10    11    18 1
   11    18    22 1
   12    22    25 1
   13    25    26 1
   14    25    33 1
   15    26    28 1
   16    28    30 1
   17    30    31 1
   18    31    33 1
   19     1    14 1
   20     2     3 1
   21     2     4 1
   22     5     6 1
   23     8    17 1
   24     9    10 1
   25    11    12 1
   26    13    16 1
   27    15    19 1
   28    15    20 1
   29    15    21 1
   30    22    23 1
   31    22    24 1
   32    26    27 1
   33    28    29 1
   34    31    32 1
   35    33    34 1
@<TRIPOS>SUBSTRUCTURE
      1 DMP               1 ****               0 ****  **** 
