@<TRIPOS>MOLECULE
modXNA-fragment:DMX:HEAD01:@C5':HEAD01STRIP:@O1,H5:TAIL01:@O3':TAIL01STRIP:@H6:HEAD03:@C1':HEAD03STRIP:@C7,H9,H10,H11
   24    24     1     0     0
SMALL
USER_CHARGES


@<TRIPOS>ATOM
      1 O1         -1.6680    0.2890    1.3990 OH         1 DMX     -0.682343
      2 C5'        -1.8050   -0.2890    0.1200 CI         1 DMX      0.381511
      3 C6'        -2.6830    0.6400   -0.7000 CT         1 DMX     -0.323434
      4 H5'        -2.3010   -1.2570    0.2090 H1         1 DMX     -0.073322
      5 C4'        -0.4490   -0.5350   -0.5440 CT         1 DMX      0.024724
      6 H4'        -0.6290   -1.0760   -1.4720 H1         1 DMX      0.051312
      7 O4'         0.1750    0.6860   -0.8400 OS         1 DMX     -0.481943
      8 C1'         1.4880    0.7480   -0.3170 CT         1 DMX      0.372711
      9 C3'         0.5510   -1.3300    0.3210 CT         1 DMX      0.208954
     10 H3'         0.0570   -1.8850    1.1150 H1         1 DMX      0.000153
     11 C2'         1.4730   -0.2410    0.8450 CT         1 DMX     -0.163106
     12 H2'         1.0390    0.2270    1.7210 HC         1 DMX      0.071433
     13 O3'         1.3330   -2.2090   -0.4500 OS         1 DMX     -0.682630
     14 H5         -1.4990   -0.3820    2.0450 HO         1 DMX      0.404969
     15 C7          1.8020    2.1840    0.0520 CT         1 DMX     -0.338139
     16 H6          0.7790   -2.8400   -0.8860 HO         1 DMX      0.415564
     17 H1'         2.1830    0.4020   -1.0770 H2         1 DMX     -0.000862
     18 H2''        2.4510   -0.6320    1.0940 HC         1 DMX      0.071433
     19 H9          2.8080    2.2630    0.4550 HC         1 DMX      0.113644
     20 H10         1.0970    2.5440    0.7940 HC         1 DMX      0.113644
     21 H11         1.7350    2.8230   -0.8210 HC         1 DMX      0.113644
     22 H6'1       -2.8320    0.2500   -1.7020 HC         1 DMX      0.116831
     23 H6'2       -2.2180    1.6140   -0.7750 HC         1 DMX      0.116831
     24 H6'3       -3.6500    0.7500   -0.2220 HC         1 DMX      0.116831
@<TRIPOS>BOND
    1     1     2 1
    2     2     3 1
    3     2     5 1
    4     5     7 1
    5     5     9 1
    6     7     8 1
    7     8    11 1
    8     8    15 1
    9     9    11 1
   10     9    13 1
   11     1    14 1
   12     2     4 1
   13     3    22 1
   14     3    23 1
   15     3    24 1
   16     5     6 1
   17     8    17 1
   18     9    10 1
   19    11    12 1
   20    11    18 1
   21    13    16 1
   22    15    19 1
   23    15    20 1
   24    15    21 1
@<TRIPOS>SUBSTRUCTURE
      1 DMX               1 ****               0 ****  **** 
