@<TRIPOS>MOLECULE
modXNA-fragment:DS4:HEAD01:@C5':HEAD01STRIP:@O1,H6:TAIL01:@O3':TAIL01STRIP:@H7:HEAD03:@C1':HEAD03STRIP:@C6,H10,H11,H12
   21    21     1     0     0
SMALL
USER_CHARGES


@<TRIPOS>ATOM
      1 O1         -1.8690    1.3790    1.0620 OH         1 DS4     -0.676143
      2 C5'        -2.1480    0.7220   -0.1430 CI         1 DS4      0.127067
      3 H5'        -2.3410    1.4920   -0.8780 H1         1 DS4      0.040742
      4 H5''       -3.0570    0.1280   -0.0490 H1         1 DS4      0.040742
      5 C4'        -1.0260   -0.1890   -0.6460 CT         1 DS4      0.115876
      6 H4'        -1.4220   -0.7220   -1.5050 H1         1 DS4      0.020964
      7 S4'         0.4580    0.7370   -1.1910 S          1 DS4     -0.395171
      8 C1'         1.5940   -0.0520    0.0140 CT         1 DS4      0.284542
      9 C3'        -0.5340   -1.2150    0.3950 CT         1 DS4      0.081211
     10 H3'        -1.3310   -1.4380    1.1050 H1         1 DS4      0.051586
     11 C2'         0.6770   -0.6200    1.0970 CT         1 DS4     -0.222228
     12 H2'         0.3590    0.1780    1.7560 HC         1 DS4      0.096080
     13 O3'        -0.1030   -2.4060   -0.2110 OS         1 DS4     -0.663340
     14 H6         -2.0850    0.8180    1.7940 HO         1 DS4      0.439575
     15 C6          2.6320    0.9330    0.5390 CT         1 DS4     -0.052489
     16 H7         -0.8050   -2.7880   -0.7200 HO         1 DS4      0.430670
     17 H1'         2.0930   -0.8670   -0.4920 H2         1 DS4      0.010030
     18 H2''        1.1820   -1.3800    1.6830 HC         1 DS4      0.096080
     19 H10         3.2960    0.4330    1.2400 HC         1 DS4      0.017483
     20 H11         2.1580    1.7660    1.0460 HC         1 DS4      0.017483
     21 H12         3.2420    1.3300   -0.2660 HC         1 DS4      0.017483
@<TRIPOS>BOND
    1     1     2 1
    2     2     5 1
    3     5     7 1
    4     5     9 1
    5     7     8 1
    6     8    11 1
    7     8    15 1
    8     9    11 1
    9     9    13 1
   10     1    14 1
   11     2     3 1
   12     2     4 1
   13     5     6 1
   14     8    17 1
   15     9    10 1
   16    11    12 1
   17    11    18 1
   18    13    16 1
   19    15    19 1
   20    15    20 1
   21    15    21 1
@<TRIPOS>SUBSTRUCTURE
      1 DS4               1 ****               0 ****  **** 
