@<TRIPOS>MOLECULE
modXNA-fragment:DUD:HEAD01:@C5':HEAD01STRIP:@O1,H6:TAIL01:@O3':TAIL01STRIP:@H7:HEAD03:@C1':HEAD03STRIP:@C6,H10,H11,H12
   23    22     1     0     0
SMALL
USER_CHARGES


@<TRIPOS>ATOM
      1 O1          0.2580    1.8800    0.9350 OH         1 DUD     -0.700254
      2 C5'        -0.2150    1.7910   -0.3850 CI         1 DUD      0.196691
      3 H5'         0.5740    1.9990   -1.1010 H1         1 DUD      0.009830
      4 H5''       -1.0080    2.5190   -0.5430 H1         1 DUD      0.009830
      5 C4'        -0.8070    0.4190   -0.6710 CT         1 DUD      0.084077
      6 H4'        -1.3410    0.5310   -1.6090 H1         1 DUD      0.082185
      7 O4'         0.0910   -0.6300   -0.9650 OS         1 DUD     -0.580917
      8 C1'         1.2530   -1.0210   -0.2470 CT         1 DUD      0.466391
      9 C3'        -1.8450   -0.0120    0.3630 CT         1 DUD      0.196691
     10 H3'        -2.6240    0.7390    0.4180 H1         1 DUD      0.007471
     11 C2'         1.0360   -1.2980    1.2380 CT         1 DUD     -0.419415
     12 H2'1        1.9250   -1.7750    1.6400 HC         1 DUD      0.140129
     13 O3'        -2.4550   -1.2090   -0.0290 OS         1 DUD     -0.700254
     14 H6          0.5660    2.7590    1.1050 HO         1 DUD      0.452407
     15 C6          2.4380   -0.0910   -0.4970 CT         1 DUD     -0.419415
     16 H7         -1.7810   -1.7760   -0.3820 HO         1 DUD      0.452407
     17 H1'         1.4880   -1.9670   -0.7200 H2         1 DUD     -0.023852
     18 H2'2        0.2020   -1.9740    1.3890 HC         1 DUD      0.140129
     19 H10         3.3530   -0.5730   -0.1640 HC         1 DUD      0.140129
     20 H11         2.3410    0.8430    0.0410 HC         1 DUD      0.140129
     21 H12         2.5340    0.1160   -1.5570 HC         1 DUD      0.140129
     22 H3''       -1.4080   -0.1030    1.3480 H1         1 DUD      0.009830
     23 H2'3        0.8610   -0.3890    1.7980 HC         1 DUD      0.140129
@<TRIPOS>BOND
    1     1     2 1
    2     2     5 1
    3     5     7 1
    4     5     9 1
    5     7     8 1
    6     8    11 1
    7     8    15 1
    8     9    13 1
    9     1    14 1
   10     2     3 1
   11     2     4 1
   12     5     6 1
   13     8    17 1
   14     9    10 1
   15     9    22 1
   16    11    12 1
   17    11    18 1
   18    11    23 1
   19    13    16 1
   20    15    19 1
   21    15    20 1
   22    15    21 1
@<TRIPOS>SUBSTRUCTURE
      1 DUD               1 ****               0 ****  **** 
