@<TRIPOS>MOLECULE
modXNA-fragment:LNA:HEAD01:@C5':HEAD01STRIP:@O1,H5:TAIL01:@O3':TAIL01STRIP:@H6:HEAD03:@C1':HEAD03STRIP:@C7,H8,H9,H10
   23    24     1     0     0
SMALL
USER_CHARGES


@<TRIPOS>ATOM
      1 O1         -2.3680    1.5540    0.2850 OH         1 LNA     -0.664413
      2 C5'        -2.0600    0.4600   -0.5300 CI         1 LNA      0.175282
      3 H5'        -2.7270   -0.3770   -0.3340 H1         1 LNA      0.031541
      4 H5''       -2.2330    0.7860   -1.5470 H1         1 LNA      0.031541
      5 C4'        -0.6280   -0.0120   -0.4050 CT         1 LNA      0.112149
      6 C6'        -0.2540   -1.2400   -1.2430 CT         1 LNA     -0.109499
      7 O4'         0.2670    1.0250   -0.7510 OS         1 LNA     -0.422812
      8 C1'         1.5780    0.6300   -0.3350 CT         1 LNA      0.203087
      9 C3'        -0.0710   -0.4470    0.9600 CT         1 LNA      0.221610
     10 H3'        -0.0590    0.3690    1.6720 H1         1 LNA      0.014501
     11 C2'         1.2940   -0.7160    0.3370 CT         1 LNA     -0.012535
     12 H2'         2.0680   -1.1200    0.9690 H1         1 LNA      0.140049
     13 O3'        -0.6260   -1.6060    1.5010 OS         1 LNA     -0.659203
     14 H5         -2.4160    1.2870    1.1910 HO         1 LNA      0.420652
     15 C7          2.2130    1.7120    0.5190 CT         1 LNA     -0.248537
     16 H6         -1.4160   -1.3980    1.9790 HO         1 LNA      0.423984
     17 H1'         2.1850    0.4600   -1.2170 H2         1 LNA      0.078267
     18 O2'         0.9950   -1.6320   -0.6940 OS         1 LNA     -0.367798
     19 H8          3.2380    1.4490    0.7630 HC         1 LNA      0.086729
     20 H9          1.6700    1.8770    1.4430 HC         1 LNA      0.086729
     21 H10         2.2240    2.6470   -0.0300 HC         1 LNA      0.086729
     22 H6'        -0.9590   -2.0560   -1.1430 H1         1 LNA      0.129753
     23 H6''       -0.1390   -0.9810   -2.2880 H1         1 LNA      0.129753
@<TRIPOS>BOND
    1     1     2 1
    2     2     5 1
    3     5     6 1
    4     5     7 1
    5     5     9 1
    6     6    18 1
    7     7     8 1
    8     8    11 1
    9     8    15 1
   10     9    11 1
   11     9    13 1
   12    11    18 1
   13     1    14 1
   14     2     3 1
   15     2     4 1
   16     6    22 1
   17     6    23 1
   18     8    17 1
   19     9    10 1
   20    11    12 1
   21    13    16 1
   22    15    19 1
   23    15    20 1
   24    15    21 1
@<TRIPOS>SUBSTRUCTURE
      1 LNA               1 ****               0 ****  **** 
