@<TRIPOS>MOLECULE
modXNA-fragment:M5M:HEAD01:@C5':HEAD01STRIP:@O1,H6:TAIL01:@O3':TAIL01STRIP:@H7:HEAD03:@C1':HEAD03STRIP:@C6,H9,H10,H11
   28    28     1     0     0
SMALL
USER_CHARGES


@<TRIPOS>ATOM
      1 O1          2.1660    0.9490    1.7360 OH         1 M5M     -0.654168
      2 C5'         2.7540    1.0960    0.4720 CT         1 M5M      0.202133
      3 H5'         3.7180    0.6080    0.5220 H1         1 M5M      0.024632
      4 H5''        2.9240    2.1470    0.2400 H1         1 M5M      0.024632
      5 C4'         1.9540    0.4530   -0.6520 CT         1 M5M      0.131457
      6 H4'         2.4530    0.6870   -1.5910 H1         1 M5M      0.023106
      7 O4'         1.9430   -0.9450   -0.4820 OS         1 M5M     -0.473918
      8 C1'         0.6350   -1.4620   -0.3840 CT         1 M5M      0.308128
      9 C3'         0.4840    0.8830   -0.7220 CT         1 M5M      0.148881
     10 H3'         0.3020    1.8510   -0.2660 H1         1 M5M      0.032405
     11 C2'        -0.2140   -0.2550    0.0230 CT         1 M5M      0.499929
     12 O3'        -0.0080    0.8750   -2.0410 OH         1 M5M     -0.719116
     13 HO1         1.5190    1.6250    1.8830 HO         1 M5M      0.415091
     14 C6          0.6200   -2.6130    0.6020 CT         1 M5M     -0.334378
     15 HO3'        0.4490    1.5200   -2.5640 HO         1 M5M      0.449086
     16 H1'         0.3180   -1.8120   -1.3650 H1         1 M5M      0.013659
     17 N18        -1.6140   -0.4080   -0.2700 N          1 M5M     -0.930547
     18 H61        -0.3850   -3.0070    0.7090 HC         1 M5M      0.090791
     19 H62         0.9740   -2.2790    1.5700 HC         1 M5M      0.090791
     20 H63         1.2670   -3.4120    0.2580 HC         1 M5M      0.090791
     21 H2'        -0.1140   -0.0940    1.0840 H1         1 M5M      0.011652
     22 C12        -2.5590    0.2550    0.4510 C          1 M5M      0.936313
     23 H18        -1.8410   -0.6330   -1.2130 H          1 M5M      0.396047
     24 C13        -3.9590    0.1890   -0.1220 CT         1 M5M     -0.593376
     25 O14        -2.3100    0.8470    1.4640 O          1 M5M     -0.664870
     26 H131       -4.6680    0.4400    0.6530 HC         1 M5M      0.160282
     27 H132       -4.1840   -0.7930   -0.5230 HC         1 M5M      0.160282
     28 H133       -4.0520    0.9130   -0.9260 HC         1 M5M      0.160282
@<TRIPOS>BOND
    1     1     2 1
    2     2     5 1
    3     5     7 1
    4     5     9 1
    5     7     8 1
    6     8    11 1
    7     8    14 1
    8     9    11 1
    9     9    12 1
   10    11    17 1
   11    17    22 1
   12    22    24 1
   13    22    25 1
   14     1    13 1
   15     2     3 1
   16     2     4 1
   17     5     6 1
   18     8    16 1
   19     9    10 1
   20    11    21 1
   21    12    15 1
   22    14    18 1
   23    14    19 1
   24    14    20 1
   25    17    23 1
   26    24    26 1
   27    24    27 1
   28    24    28 1
@<TRIPOS>SUBSTRUCTURE
      1 M5M               1 ****               0 ****  **** 
