@<TRIPOS>MOLECULE
modXNA-fragment:MOE:HEAD01:@C5':HEAD01STRIP:@O1,H6:TAIL01:@O3':TAIL01STRIP:@H7:HEAD03:@C1':HEAD03STRIP:@C6,H9,H10,H11
   32    32     1     0     0
SMALL
USER_CHARGES


@<TRIPOS>ATOM
      1 O1         -3.9690   -0.9100    0.4180 OH         1 MOE     -0.679548
      2 C5'        -3.1880   -1.3220   -0.6740 CI         1 MOE      0.153658
      3 H5'        -3.7000   -1.1290   -1.6120 H1         1 MOE      0.010434
      4 H5''       -2.9710   -2.3860   -0.6150 H1         1 MOE      0.010434
      5 C4'        -1.8790   -0.5650   -0.6790 CT         1 MOE      0.154041
      6 H4'        -1.2380   -0.9980   -1.4440 H1         1 MOE      0.044626
      7 O4'        -2.1090    0.7930   -0.9430 OS         1 MOE     -0.545796
      8 C1'        -1.1420    1.6140   -0.3130 CT         1 MOE      0.395059
      9 C3'        -1.1230   -0.5670    0.6420 CT         1 MOE      0.239736
     10 H3'        -1.8290   -0.3900    1.4450 H1         1 MOE      0.005412
     11 C2'        -0.2260    0.6660    0.4770 CT         1 MOE      0.092237
     12 H2'         0.0830    1.0980    1.4260 H1         1 MOE     -0.003818
     13 O2'         0.8970    0.3800   -0.3060 OS         1 MOE     -0.523974
     14 O3'        -0.4560   -1.7830    0.8230 OS         1 MOE     -0.666275
     15 H6         -4.8430   -1.2610    0.3320 HO         1 MOE      0.436754
     16 C6         -1.8570    2.6530    0.5360 CT         1 MOE     -0.267916
     17 H7         -0.3960   -1.9860    1.7440 HO         1 MOE      0.424017
     18 H1'        -0.5480    2.1020   -1.0760 H2         1 MOE     -0.019089
     19 H9         -1.1480    3.3520    0.9710 HC         1 MOE      0.080259
     20 H10        -2.4210    2.1840    1.3350 HC         1 MOE      0.080259
     21 H11        -2.5540    3.2100   -0.0790 HC         1 MOE      0.080259
     22 C6'         2.0620    0.0110    0.3770 CT         1 MOE      0.128433
     23 H6'         1.8800   -0.8080    1.0610 H1         1 MOE      0.025596
     24 H6''        2.4390    0.8560    0.9520 H1         1 MOE      0.025596
     25 C7'         3.0750   -0.4250   -0.6680 CT         1 MOE      0.160802
     26 H7'         2.6950   -1.2990   -1.1810 H1         1 MOE      0.035632
     27 O7'         4.2930   -0.7790   -0.0780 OS         1 MOE     -0.445762
     28 H7''        3.2070    0.3640   -1.4040 H1         1 MOE      0.035632
     29 C8'         5.2190    0.2540    0.0580 CT         1 MOE      0.064751
     30 H8'1        6.1000   -0.1630    0.5270 H1         1 MOE      0.037634
     31 H8'2        4.8470    1.0640    0.6810 H1         1 MOE      0.037634
     32 H8'3        5.4980    0.6650   -0.9100 H1         1 MOE      0.037634
@<TRIPOS>BOND
    1     1     2 1
    2     2     5 1
    3     5     7 1
    4     5     9 1
    5     7     8 1
    6     8    11 1
    7     8    16 1
    8     9    11 1
    9     9    14 1
   10    11    13 1
   11    13    22 1
   12    22    25 1
   13    25    27 1
   14    27    29 1
   15     1    15 1
   16     2     3 1
   17     2     4 1
   18     5     6 1
   19     8    18 1
   20     9    10 1
   21    11    12 1
   22    14    17 1
   23    16    19 1
   24    16    20 1
   25    16    21 1
   26    22    23 1
   27    22    24 1
   28    25    26 1
   29    25    28 1
   30    29    30 1
   31    29    31 1
   32    29    32 1
@<TRIPOS>SUBSTRUCTURE
      1 MOE               1 ****               0 ****  **** 
