@<TRIPOS>MOLECULE
modXNA-fragment:NAI:HEAD01:@C5':HEAD01STRIP:@O1,H6:TAIL01:@O3':TAIL01STRIP:@H7:HEAD03:@C1':HEAD03STRIP:@C6,H9,H10,H11
   36    37     1     0     0
SMALL
USER_CHARGES


@<TRIPOS>ATOM
      1 O1         -3.8040   -1.6530    0.9030 OH         1 NAI     -0.649937
      2 C5'        -4.2740   -1.1060   -0.3010 CT         1 NAI      0.176444
      3 H5'        -4.4150   -1.8810   -1.0520 H1         1 NAI      0.032927
      4 H5''       -5.2390   -0.6680   -0.0900 H1         1 NAI      0.032927
      5 C4'        -3.3640   -0.0200   -0.8550 CT         1 NAI      0.159543
      6 H4'        -3.7360    0.2730   -1.8340 H1         1 NAI      0.022080
      7 O4'        -3.4050    1.0960    0.0060 OS         1 NAI     -0.480212
      8 C1'        -2.1160    1.4960    0.4070 CT         1 NAI      0.323900
      9 H1'        -1.7190    2.2220   -0.2970 H1         1 NAI      0.031629
     10 C3'        -1.8840   -0.4240   -0.9700 CT         1 NAI      0.113850
     11 H3'        -1.7430   -1.4980   -0.9880 H1         1 NAI      0.053475
     12 C2'        -1.3030    0.2130    0.2890 CT         1 NAI      0.511647
     13 H2'        -1.4860   -0.4290    1.1370 H1         1 NAI     -0.031315
     14 O2'         0.0690    0.5280    0.2140 OS         1 NAI     -0.578757
     15 C29         0.9370   -0.4750    0.2070 C          1 NAI      0.897261
     16 O3'        -1.2540    0.1650   -2.0760 OH         1 NAI     -0.699515
     17 H6         -3.2240   -2.3810    0.7310 HO         1 NAI      0.412704
     18 C6         -2.1840    2.0940    1.7970 CT         1 NAI     -0.381927
     19 H7         -1.5500   -0.2500   -2.8730 HO         1 NAI      0.447527
     20 H9         -1.1930    2.3820    2.1320 HC         1 NAI      0.103031
     21 H10        -2.5990    1.3750    2.4950 HC         1 NAI      0.103031
     22 H11        -2.8150    2.9740    1.7970 HC         1 NAI      0.103031
     23 C12         2.3410   -0.0050    0.0510 CA         1 NAI     -0.540503
     24 O13         0.6020   -1.6140    0.3200 O          1 NAI     -0.616729
     25 C25         3.4370   -0.8650    0.2360 CA         1 NAI      0.731055
     26 N26         4.6790   -0.4300    0.0810 NC         1 NAI     -0.715427
     27 C27         4.8940    0.8270   -0.2580 CA         1 NAI      0.457602
     28 C28         3.8880    1.7500   -0.4650 CA         1 NAI     -0.529735
     29 C29         2.5880    1.3170   -0.3020 CA         1 NAI      0.225000
     30 C12         3.3150   -2.3180    0.6220 CT         1 NAI     -0.466955
     31 H27         5.9260    1.1110   -0.3710 H4         1 NAI      0.052032
     32 H28         4.1130    2.7620   -0.7420 HA         1 NAI      0.195232
     33 H29         1.7660    1.9880   -0.4510 HA         1 NAI      0.120567
     34 H121        4.3090   -2.7100    0.7780 HC         1 NAI      0.128172
     35 H122        2.8190   -2.8870   -0.1540 HC         1 NAI      0.128172
     36 H123        2.7280   -2.4430    1.5240 HC         1 NAI      0.128172
@<TRIPOS>BOND
    1     1     2 1
    2     2     5 1
    3     5     7 1
    4     5    10 1
    5     7     8 1
    6     8    12 1
    7     8    18 1
    8    10    12 1
    9    10    16 1
   10    12    14 1
   11    14    15 1
   12    15    23 1
   13    15    24 1
   14    23    25 1
   15    23    29 1
   16    25    26 1
   17    25    30 1
   18    26    27 1
   19    27    28 1
   20    28    29 1
   21     1    17 1
   22     2     3 1
   23     2     4 1
   24     5     6 1
   25     8     9 1
   26    10    11 1
   27    12    13 1
   28    16    19 1
   29    18    20 1
   30    18    21 1
   31    18    22 1
   32    27    31 1
   33    28    32 1
   34    29    33 1
   35    30    34 1
   36    30    35 1
   37    30    36 1
@<TRIPOS>SUBSTRUCTURE
      1 NAI               1 ****               0 ****  **** 
