@<TRIPOS>MOLECULE
modXNA-fragment:OME:HEAD01:@C5':HEAD01STRIP:@O1,H6:TAIL01:@O3':TAIL01STRIP:@H7:HEAD03:@C1':HEAD03STRIP:@C6,H9,H10,H11
   25    25     1     0     0
SMALL
USER_CHARGES


@<TRIPOS>ATOM
      1 O1         -2.1700   -0.4140    1.6000 OH         1 OME     -0.658348
      2 C5'        -2.5070   -0.6240    0.2520 CI         1 OME      0.119115
      3 H5'        -3.3180    0.0520    0.0190 H1         1 OME      0.042013
      4 H5''       -2.8640   -1.6410    0.0960 H1         1 OME      0.042013
      5 C4'        -1.3570   -0.3350   -0.7000 CT         1 OME      0.116491
      6 H4'        -1.6610   -0.6440   -1.6990 H1         1 OME      0.013915
      7 O4'        -1.1040    1.0480   -0.7010 OS         1 OME     -0.474448
      8 C1'         0.2700    1.3180   -0.5360 CT         1 OME      0.283784
      9 C3'        -0.0260   -1.0270   -0.3420 CT         1 OME      0.127930
     10 H3'        -0.1730   -1.8510    0.3530 H1         1 OME      0.019321
     11 C2'         0.7710    0.1300    0.2740 CT         1 OME      0.174570
     12 H2'         0.4530    0.2460    1.3080 H1         1 OME      0.028124
     13 O3'         0.6640   -1.4790   -1.4750 OS         1 OME     -0.658945
     14 H6         -1.8740   -1.2220    1.9910 HO         1 OME      0.409446
     15 C6          0.4430    2.6690    0.1240 CT         1 OME     -0.214186
     16 H7          0.1500   -2.1360   -1.9230 HO         1 OME      0.425460
     17 H1'         0.7690    1.3040   -1.5010 H2         1 OME      0.018264
     18 O2'         2.1500    0.0420    0.1910 OS         1 OME     -0.414486
     19 H9          1.4960    2.8700    0.2870 H1         1 OME      0.075428
     20 H10        -0.0750    2.6930    1.0760 H1         1 OME      0.075428
     21 H11         0.0360    3.4530   -0.5060 H1         1 OME      0.075428
     22 CM1         2.7390   -0.9670    0.9510 CT         1 OME     -0.017009
     23 HM'1        3.8110   -0.8510    0.8620 H1         1 OME      0.066018
     24 HM'2        2.4640   -1.9520    0.5870 H1         1 OME      0.066018
     25 HM'3        2.4630   -0.8840    2.0010 H1         1 OME      0.066018
@<TRIPOS>BOND
    1     1     2 1
    2     2     5 1
    3     5     7 1
    4     5     9 1
    5     7     8 1
    6     8    11 1
    7     8    15 1
    8     9    11 1
    9     9    13 1
   10    11    18 1
   11    18    22 1
   12     1    14 1
   13     2     3 1
   14     2     4 1
   15     5     6 1
   16     8    17 1
   17     9    10 1
   18    11    12 1
   19    13    16 1
   20    15    19 1
   21    15    20 1
   22    15    21 1
   23    22    23 1
   24    22    24 1
   25    22    25 1
@<TRIPOS>SUBSTRUCTURE
      1 OME               1 ****               0 ****  **** 
