@<TRIPOS>MOLECULE
modXNA-fragment:P3S:HEAD01:@C5':HEAD01STRIP:@O1,H6:TAIL01:@O3':TAIL01STRIP:@H7:HEAD03:@C1':HEAD03STRIP:@C6,H9,H10,H11
   34    35     1     0     0
SMALL
USER_CHARGES


@<TRIPOS>ATOM
      1 O1          3.9740   -0.5200    1.3500 OH         1 P3S     -0.715192
      2 C5'         4.3150    0.7040    0.7570 CT         1 P3S      0.136434
      3 H5'         4.4130    1.4850    1.5090 H1         1 P3S      0.031741
      4 H5''        5.2540    0.6300    0.2170 H1         1 P3S      0.031741
      5 C4'         3.2230    1.0890   -0.2220 CT         1 P3S      0.247274
      6 H4'         3.4170    2.0990   -0.5740 H1         1 P3S      0.021930
      7 O4'         3.2550    0.2040   -1.3180 OS         1 P3S     -0.497350
      8 C1'         1.9970   -0.3810   -1.5570 CT         1 P3S      0.406184
      9 H1'         1.4270    0.2350   -2.2460 H1         1 P3S      0.039550
     10 C3'         1.7990    1.0190    0.3630 CT         1 P3S      0.022492
     11 H3'         1.7910    1.0360    1.4430 H1         1 P3S      0.121521
     12 C2'         1.3210   -0.3200   -0.1920 CT         1 P3S      0.206053
     13 H2'         1.6620   -1.1250    0.4410 H1         1 P3S      0.127024
     14 O2'        -0.0910   -0.4120   -0.3860 OS         1 P3S     -0.437677
     15 S1         -1.0300   -0.7600    0.8290 SO         1 P3S      1.031615
     16 O3'         0.9750    2.0290   -0.1590 OH         1 P3S     -0.643316
     17 H6          4.6810   -0.8280    1.8980 HO         1 P3S      0.465322
     18 C6          2.1820   -1.7730   -2.1230 CT         1 P3S     -0.434126
     19 H7          1.1410    2.8400    0.3010 HO         1 P3S      0.447601
     20 H9          1.2190   -2.2470   -2.2820 HC         1 P3S      0.117974
     21 H10         2.7670   -2.3800   -1.4430 HC         1 P3S      0.117974
     22 H11         2.7020   -1.7240   -3.0730 HC         1 P3S      0.117974
     23 C12        -2.5410   -0.1210    0.2040 CA         1 P3S     -0.337551
     24 O23        -0.6020   -0.0030    1.9600 O          1 P3S     -0.534643
     25 O24        -1.1430   -2.1770    0.9460 O          1 P3S     -0.534643
     26 C26        -2.6760    1.2430   -0.0260 CA         1 P3S      0.502111
     27 N27        -3.7960    1.7770   -0.4630 NC         1 P3S     -0.687660
     28 C28        -4.8240    0.9700   -0.6820 CA         1 P3S      0.503304
     29 C29        -4.7890   -0.3990   -0.4830 CA         1 P3S     -0.562063
     30 C30        -3.6110   -0.9650   -0.0270 CA         1 P3S      0.254974
     31 H26        -1.8480    1.9060    0.1390 H4         1 P3S      0.054491
     32 H28        -5.7230    1.4420   -1.0350 H4         1 P3S      0.045970
     33 H29        -5.6550   -1.0010   -0.6800 HA         1 P3S      0.209760
     34 H30        -3.5180   -2.0190    0.1460 HA         1 P3S      0.123206
@<TRIPOS>BOND
    1     1     2 1
    2     2     5 1
    3     5     7 1
    4     5    10 1
    5     7     8 1
    6     8    12 1
    7     8    18 1
    8    10    12 1
    9    10    16 1
   10    12    14 1
   11    14    15 1
   12    15    23 1
   13    15    24 1
   14    15    25 1
   15    23    26 1
   16    23    30 1
   17    26    27 1
   18    27    28 1
   19    28    29 1
   20    29    30 1
   21     1    17 1
   22     2     3 1
   23     2     4 1
   24     5     6 1
   25     8     9 1
   26    10    11 1
   27    12    13 1
   28    16    19 1
   29    18    20 1
   30    18    21 1
   31    18    22 1
   32    26    31 1
   33    28    32 1
   34    29    33 1
   35    30    34 1
@<TRIPOS>SUBSTRUCTURE
      1 P3S               1 ****               0 ****  **** 
