@<TRIPOS>MOLECULE
modXNA-fragment:RBO:HEAD01:@C5':HEAD01STRIP:@O1,H6:TAIL01:@O3':TAIL01STRIP:@H7:HEAD03:@C1':HEAD03STRIP:@C6,H9,H10,H11
   35    36     1     0     0
SMALL
USER_CHARGES


@<TRIPOS>ATOM
      1 O1         -4.7030   -0.8700    0.0080 OH         1 RBO     -0.686540
      2 C5'        -3.6320   -1.6730   -0.3980 CI         1 RBO      0.218167
      3 H5'        -3.8010   -2.0640   -1.3980 H1         1 RBO      0.013241
      4 H5''       -3.5780   -2.5090    0.2870 H1         1 RBO      0.013241
      5 C4'        -2.3190   -0.9140   -0.3690 CT         1 RBO      0.108579
      6 H4'        -1.5290   -1.5420   -0.7760 H1         1 RBO     -0.000075
      7 O4'        -2.4690    0.2550   -1.1450 OS         1 RBO     -0.480597
      8 C1'        -1.6410    1.3050   -0.6710 CT         1 RBO      0.209892
      9 C3'        -1.9000   -0.3920    1.0020 CT         1 RBO      0.221414
     10 H3'        -2.7760   -0.0250    1.5190 H1         1 RBO      0.062201
     11 C2'        -0.9930    0.7790    0.6200 CT         1 RBO     -0.020677
     12 H2'        -0.9330    1.5350    1.3970 H1         1 RBO      0.075189
     13 O2'         0.2820    0.2340    0.3890 OS         1 RBO     -0.261827
     14 O3'        -1.2990   -1.3380    1.8210 OS         1 RBO     -0.675377
     15 H6         -4.7270   -0.1150   -0.5650 HO         1 RBO      0.426097
     16 C6         -2.4890    2.5530   -0.4810 CT         1 RBO     -0.314105
     17 H7         -0.3920   -1.4250    1.5500 HO         1 RBO      0.395637
     18 H1'        -0.8730    1.4940   -1.4120 H2         1 RBO      0.067178
     19 H9         -1.8710    3.4040   -0.2110 HC         1 RBO      0.110105
     20 H10        -3.2300    2.4060    0.2990 HC         1 RBO      0.110105
     21 H11        -3.0110    2.7890   -1.4010 HC         1 RBO      0.110105
     22 C6'         1.3540    1.1380    0.4220 CT         1 RBO      0.013309
     23 H6'         1.1860    1.9370   -0.2980 H1         1 RBO      0.058543
     24 H6''        1.4190    1.5960    1.4050 H1         1 RBO      0.058543
     25 C7'         2.6380    0.4150    0.0980 CA         1 RBO      0.076537
     26 C82'        2.7110   -0.4330   -1.0030 CA         1 RBO     -0.150705
     27 H82'        1.8350   -0.5980   -1.6040 HA         1 RBO      0.140745
     28 C92'        3.8960   -1.0710   -1.3190 CA         1 RBO     -0.087769
     29 H92'        3.9390   -1.7270   -2.1700 HA         1 RBO      0.135949
     30 C10'        5.0280   -0.8660   -0.5420 CA         1 RBO     -0.118207
     31 H10'        5.9500   -1.3630   -0.7900 HA         1 RBO      0.139145
     32 C91'        4.9640   -0.0240    0.5520 CA         1 RBO     -0.087769
     33 H91'        5.8350    0.1360    1.1630 HA         1 RBO      0.135949
     34 C81'        3.7720    0.6100    0.8720 CA         1 RBO     -0.150705
     35 H81'        3.7290    1.2560    1.7320 HA         1 RBO      0.140745
@<TRIPOS>BOND
    1     1     2 1
    2     2     5 1
    3     5     7 1
    4     5     9 1
    5     7     8 1
    6     8    11 1
    7     8    16 1
    8     9    11 1
    9     9    14 1
   10    11    13 1
   11    13    22 1
   12    22    25 1
   13    25    26 1
   14    25    34 1
   15    26    28 1
   16    28    30 1
   17    30    32 1
   18    32    34 1
   19     1    15 1
   20     2     3 1
   21     2     4 1
   22     5     6 1
   23     8    18 1
   24     9    10 1
   25    11    12 1
   26    14    17 1
   27    16    19 1
   28    16    20 1
   29    16    21 1
   30    22    23 1
   31    22    24 1
   32    26    27 1
   33    28    29 1
   34    30    31 1
   35    32    33 1
   36    34    35 1
@<TRIPOS>SUBSTRUCTURE
      1 RBO               1 ****               0 ****  **** 
