@<TRIPOS>MOLECULE
modXNA-fragment:RC3:HEAD01:@C5':HEAD01STRIP:@O1,H6:TAIL01:@O3':TAIL01STRIP:@H7:HEAD03:@C1':HEAD03STRIP:@C6,H10,H11,H9
   22    22     1     0     0
SMALL
resp


@<TRIPOS>ATOM
      1 O1           2.5350    -0.7240     0.6650 OH         1 RC3      -0.690279
      2 C5'          2.2190    -0.2100    -0.6020 CI         1 RC3       0.055800
      3 H5'          2.4720    -0.9170    -1.3870 H1         1 RC3       0.067900
      4 H5''         2.7720     0.7100    -0.7890 H1         1 RC3       0.067900
      5 C4'          0.7380     0.0850    -0.6870 CT         1 RC3       0.106500
      6 H4'          0.5600     0.6830    -1.5780 H1         1 RC3       0.117400
      7 O4'          0.0130    -1.1130    -0.7460 OS         1 RC3      -0.354800
      8 C1'         -1.3200    -0.9150    -0.2970 CT         1 RC3       0.043100
      9 C3'          0.1260     0.8000     0.5140 CT         1 RC3       0.202200
     10 H3'          0.4810     0.3360     1.4260 H1         1 RC3       0.061500
     11 C2'         -1.3540     0.4910     0.3200 CT         1 RC3       0.067000
     12 H2'         -1.9060     0.5170     1.2550 H1         1 RC3       0.097200
     13 O2'         -1.9260     1.3760    -0.6030 OH         1 RC3      -0.613900
     14 O3'          0.3360     2.1860     0.5400 OS         1 RC3      -0.524900
     15 H6           3.3680    -1.1720     0.6320 HO         1 RC3       0.442499
     16 C6          -1.6790    -2.0360     0.6610 CT         1 RC3      -0.456044
     17 H7           1.1540     2.3820     0.9740 HO         1 RC3       0.484404
     18 H1'         -1.9850    -0.9260    -1.1520 H2         1 RC3       0.183800
     19 H9          -2.7190    -1.9650     0.9640 HC         1 RC3       0.111190
     20 H10         -1.0550    -2.0040     1.5480 HC         1 RC3       0.111190
     21 H11         -1.5270    -2.9950     0.1800 HC         1 RC3       0.111190
     22 HO2'        -1.6610     2.2580    -0.3740 HO         1 RC3       0.418600
@<TRIPOS>BOND
     1     1     2 1   
     2     1    15 1   
     3     2     3 1   
     4     2     4 1   
     5     2     5 1   
     6     5     6 1   
     7     5     7 1   
     8     5     9 1   
     9     7     8 1   
    10     8    11 1   
    11     8    16 1   
    12     8    18 1   
    13     9    10 1   
    14     9    11 1   
    15     9    14 1   
    16    11    12 1   
    17    11    13 1   
    18    13    22 1   
    19    14    17 1   
    20    16    19 1   
    21    16    20 1   
    22    16    21 1   
@<TRIPOS>SUBSTRUCTURE
     1 RC3         1 TEMP              0 ****  ****    0 ROOT
