@<TRIPOS>MOLECULE
modXNA-fragment:RMP:HEAD01:@C5':HEAD01STRIP:@O1,H6:TAIL01:@O3':TAIL01STRIP:@H7:HEAD03:@C1':HEAD03STRIP:@C6,H9,H10,H11
   34    35     1     0     0
SMALL
USER_CHARGES


@<TRIPOS>ATOM
      1 O1         -4.7200   -0.7890   -0.0330 OH         1 RMP     -0.683616
      2 C5'        -3.6640   -1.6190   -0.4240 CI         1 RMP      0.214366
      3 H5'        -3.8300   -2.0070   -1.4270 H1         1 RMP      0.016947
      4 H5''       -3.6390   -2.4550    0.2620 H1         1 RMP      0.016947
      5 C4'        -2.3330   -0.8920   -0.3810 CT         1 RMP      0.083868
      6 H4'        -1.5540   -1.5420   -0.7740 H1         1 RMP      0.014287
      7 O4'        -2.4420    0.2770   -1.1630 OS         1 RMP     -0.482935
      8 C1'        -1.6040    1.3120   -0.6770 CT         1 RMP      0.250160
      9 C3'        -1.9220   -0.3750    0.9950 CT         1 RMP      0.245761
     10 H3'        -2.7970    0.0150    1.4970 H1         1 RMP      0.062673
     11 C2'        -0.9850    0.7760    0.6240 CT         1 RMP     -0.078791
     12 H2'        -0.9180    1.5300    1.4010 H1         1 RMP      0.091018
     13 O2'         0.2840    0.2060    0.4070 OS         1 RMP     -0.220654
     14 O3'        -1.3570   -1.3310    1.8280 OS         1 RMP     -0.674919
     15 H6         -4.7290   -0.0420   -0.6160 HO         1 RMP      0.427110
     16 C6         -2.4310    2.5750   -0.5000 CT         1 RMP     -0.315012
     17 H7         -0.4510   -1.4500    1.5700 HO         1 RMP      0.389851
     18 H1'        -0.8210    1.4870   -1.4060 H2         1 RMP      0.050013
     19 H9         -1.8020    3.4150   -0.2210 HC         1 RMP      0.109856
     20 H10        -3.1870    2.4420    0.2680 HC         1 RMP      0.109856
     21 H11        -2.9340    2.8200   -1.4280 HC         1 RMP      0.109856
     22 C6'         1.3670    1.0860    0.4680 CT         1 RMP     -0.041888
     23 H6'         1.2260    1.9090   -0.2300 H1         1 RMP      0.075263
     24 H6''        1.4410    1.5140    1.4640 H1         1 RMP      0.075263
     25 C7'         2.6460    0.3630    0.1230 CA         1 RMP      0.355897
     26 C82'        3.8620    0.8270    0.6020 CA         1 RMP     -0.456803
     27 H82'        3.9150    1.6800    1.2550 HA         1 RMP      0.194107
     28 C92'        5.0220    0.1700    0.2320 CA         1 RMP      0.377915
     29 H92'        5.9750    0.5130    0.5930 H4         1 RMP      0.038365
     30 N10'        5.0430   -0.8900   -0.5560 NC         1 RMP     -0.703898
     31 C91'        3.8830   -1.3310   -1.0060 CA         1 RMP      0.377915
     32 H91'        3.9210   -2.1970   -1.6450 H4         1 RMP      0.038365
     33 C81'        2.6630   -0.7490   -0.7040 CA         1 RMP     -0.456803
     34 H81'        1.7540   -1.1560   -1.1020 HA         1 RMP      0.194107
@<TRIPOS>BOND
    1     1     2 1
    2     2     5 1
    3     5     7 1
    4     5     9 1
    5     7     8 1
    6     8    11 1
    7     8    16 1
    8     9    11 1
    9     9    14 1
   10    11    13 1
   11    13    22 1
   12    22    25 1
   13    25    26 1
   14    25    33 1
   15    26    28 1
   16    28    30 1
   17    30    31 1
   18    31    33 1
   19     1    15 1
   20     2     3 1
   21     2     4 1
   22     5     6 1
   23     8    18 1
   24     9    10 1
   25    11    12 1
   26    14    17 1
   27    16    19 1
   28    16    20 1
   29    16    21 1
   30    22    23 1
   31    22    24 1
   32    26    27 1
   33    28    29 1
   34    31    32 1
   35    33    34 1
@<TRIPOS>SUBSTRUCTURE
      1 RMP               1 ****               0 ****  **** 
