@<TRIPOS>MOLECULE
modXNA-fragment:RMX:HEAD01:@C5':HEAD01STRIP:@O1,H5:TAIL01:@O3':TAIL01STRIP:@H6:HEAD03:@C1':HEAD03STRIP:@C7,H8,H9,H10
   25    25     1     0     0
SMALL
USER_CHARGES


@<TRIPOS>ATOM
      1 O1         -2.2470    0.2140    1.2320 OH         1 RMX     -0.687228
      2 C5'        -2.0040   -0.3380   -0.0390 CI         1 RMX      0.374660
      3 C6'        -2.8780    0.4190   -1.0270 CT         1 RMX     -0.349976
      4 H5'        -2.2990   -1.3890   -0.0470 H1         1 RMX     -0.061039
      5 C4'        -0.5280   -0.2830   -0.4290 CT         1 RMX      0.031163
      6 H4'        -0.4110   -0.7870   -1.3860 H1         1 RMX      0.064474
      7 O4'        -0.1030    1.0480   -0.5160 OS         1 RMX     -0.452245
      8 C1'         1.2970    1.1570   -0.3090 CT         1 RMX      0.216746
      9 C3'         0.4620   -0.9030    0.5560 CT         1 RMX      0.120300
     10 H3'         0.2190   -0.5950    1.5700 H1         1 RMX      0.023286
     11 C2'         1.7670   -0.2350    0.1320 CT         1 RMX      0.307202
     12 H2'         2.4870   -0.1910    0.9440 H1         1 RMX     -0.015063
     13 O2'         2.3210   -0.8920   -0.9720 OH         1 RMX     -0.768927
     14 O3'         0.6010   -2.2950    0.4770 OS         1 RMX     -0.750313
     15 H5         -2.0310   -0.4050    1.9130 HO         1 RMX      0.406648
     16 C7          1.5540    2.2630    0.6990 CT         1 RMX     -0.341416
     17 H6         -0.1960   -2.7320    0.7410 HO         1 RMX      0.464735
     18 H1'         1.7740    1.3930   -1.2520 H2         1 RMX      0.068223
     19 H8          2.6190    2.4310    0.8220 HC         1 RMX      0.117289
     20 H9          1.1250    2.0180    1.6660 HC         1 RMX      0.117289
     21 H10         1.0980    3.1850    0.3580 HC         1 RMX      0.117289
     22 HO2'       -2.7410    0.0390   -2.0340 HC         1 RMX      0.129891
     23 H6'1       -2.6190    1.4690   -1.0140 HC         1 RMX      0.129891
     24 H6'2       -3.9210    0.3120   -0.7520 HC         1 RMX      0.129891
     25 H6'3        2.3090   -1.8260   -0.8050 HO         1 RMX      0.486610
@<TRIPOS>BOND
    1     1     2 1
    2     2     3 1
    3     2     5 1
    4     5     7 1
    5     5     9 1
    6     7     8 1
    7     8    11 1
    8     8    16 1
    9     9    11 1
   10     9    14 1
   11    11    13 1
   12     1    15 1
   13     2     4 1
   14     3    22 1
   15     3    23 1
   16     3    24 1
   17     5     6 1
   18     8    18 1
   19     9    10 1
   20    11    12 1
   21    13    25 1
   22    14    17 1
   23    16    19 1
   24    16    20 1
   25    16    21 1
@<TRIPOS>SUBSTRUCTURE
      1 RMX               1 ****               0 ****  **** 
