@<TRIPOS>MOLECULE
modXNA-fragment:RS4:HEAD01:@C5':HEAD01STRIP:@O1,H6:TAIL01:@O3':TAIL01STRIP:@H7:HEAD03:@C1':HEAD03STRIP:@C6,H9,H10,H11
   22    22     1     0     0
SMALL
USER_CHARGES


@<TRIPOS>ATOM
      1 O1          2.5820   -0.8170    0.8670 OH         1 RS4     -0.657440
      2 C5'         2.3690   -0.1790   -0.3590 CI         1 RS4      0.142627
      3 H5'         2.7760   -0.7640   -1.1800 H1         1 RS4      0.050319
      4 H5''        2.9300    0.7480   -0.3210 H1         1 RS4      0.050319
      5 C4'         0.9030    0.1460   -0.6300 CT         1 RS4      0.012321
      6 H4'         0.8410    0.7400   -1.5320 H1         1 RS4      0.060756
      7 S4'        -0.1080   -1.3620   -0.8430 S          1 RS4     -0.390492
      8 C1'        -1.6230   -0.6430   -0.0720 CT         1 RS4      0.261738
      9 C3'         0.2110    0.9040    0.5040 CT         1 RS4      0.246308
     10 H3'         0.4390    0.4210    1.4470 H1         1 RS4      0.006958
     11 C2'        -1.2860    0.8180    0.2400 CT         1 RS4      0.093428
     12 H2'        -1.8420    1.1550    1.1110 H1         1 RS4      0.066611
     13 O2'        -1.6250    1.5930   -0.8750 OH         1 RS4     -0.740981
     14 O3'         0.5730    2.2610    0.5480 OS         1 RS4     -0.795839
     15 H6          2.1270   -1.6490    0.8650 HO         1 RS4      0.399352
     16 C6         -2.0700   -1.4430    1.1490 CT         1 RS4     -0.377294
     17 H7          1.4010    2.3650    0.9970 HO         1 RS4      0.498819
     18 H1'        -2.4040   -0.6520   -0.8170 H2         1 RS4      0.075420
     19 H9         -3.0060   -1.0470    1.5320 HC         1 RS4      0.121850
     20 H10        -1.3320   -1.4090    1.9440 HC         1 RS4      0.121850
     21 H11        -2.2280   -2.4840    0.8910 HC         1 RS4      0.121850
     22 HO2'       -1.2550    2.4590   -0.7590 HO         1 RS4      0.509597
@<TRIPOS>BOND
    1     1     2 1
    2     2     5 1
    3     5     7 1
    4     5     9 1
    5     7     8 1
    6     8    11 1
    7     8    16 1
    8     9    11 1
    9     9    14 1
   10    11    13 1
   11     1    15 1
   12     2     3 1
   13     2     4 1
   14     5     6 1
   15     8    18 1
   16     9    10 1
   17    11    12 1
   18    13    22 1
   19    14    17 1
   20    16    19 1
   21    16    20 1
   22    16    21 1
@<TRIPOS>SUBSTRUCTURE
      1 RS4               1 ****               0 ****  **** 
