@<TRIPOS>MOLECULE
modXNA-fragment:RUR:HEAD01:@C5':HEAD01STRIP:@O1,H6:TAIL01:@O3':TAIL01STRIP:@H7:HEAD03:@C1':HEAD03STRIP:@C6,H9,H10,H11
   24    23     1     0     0
SMALL
USER_CHARGES


@<TRIPOS>ATOM
      1 O1         -2.3050   -1.6420   -0.0240 OH         1 RUR     -0.710314
      2 C5'        -1.6370   -0.8720    0.9380 CI         1 RUR      0.222004
      3 H5'        -0.9510   -1.4870    1.5170 H1         1 RUR      0.010411
      4 H5''       -2.3890   -0.4930    1.6150 H1         1 RUR      0.010411
      5 C4'        -0.8740    0.2810    0.3020 CT         1 RUR      0.092794
      6 H4'        -0.4800    0.9130    1.0940 H1         1 RUR      0.025391
      7 O4'         0.1700   -0.2280   -0.4980 OS         1 RUR     -0.642531
      8 C1'         1.4480   -0.3580    0.0820 CT         1 RUR      0.426540
      9 C3'        -1.7480    1.1200   -0.6280 CT         1 RUR      0.222004
     10 H3'        -1.9270    0.5600   -1.5390 H1         1 RUR      0.007912
     11 C2'         2.2210    0.9420   -0.1330 CT         1 RUR      0.007159
     12 H2'         2.3890    1.0840   -1.1920 H1         1 RUR      0.096729
     13 O2'         3.4820    0.9180    0.4790 OH         1 RUR     -0.653987
     14 O3'        -2.9470    1.5070   -0.0210 OS         1 RUR     -0.710314
     15 H6         -1.6680   -1.9440   -0.6590 HO         1 RUR      0.455382
     16 C6          2.1400   -1.5500   -0.5560 CT         1 RUR     -0.282455
     17 H7         -3.5620    0.7870   -0.0760 HO         1 RUR      0.455382
     18 H1'         1.3500   -0.5340    1.1530 H2         1 RUR     -0.065373
     19 H9          3.1530   -1.6450   -0.1860 HC         1 RUR      0.099165
     20 H10         2.1750   -1.4250   -1.6330 HC         1 RUR      0.099165
     21 H11         1.5990   -2.4650   -0.3380 HC         1 RUR      0.099165
     22 H3''       -1.2160    2.0230   -0.8980 H1         1 RUR      0.010411
     23 H2''        1.6330    1.7870    0.2200 H1         1 RUR      0.096729
     24 HO2'        3.3870    1.0240    1.4150 HO         1 RUR      0.408443
@<TRIPOS>BOND
    1     1     2 1
    2     2     5 1
    3     5     7 1
    4     5     9 1
    5     7     8 1
    6     8    11 1
    7     8    16 1
    8     9    14 1
    9    11    13 1
   10     1    15 1
   11     2     3 1
   12     2     4 1
   13     5     6 1
   14     8    18 1
   15     9    10 1
   16     9    22 1
   17    11    12 1
   18    11    23 1
   19    13    24 1
   20    14    17 1
   21    16    19 1
   22    16    20 1
   23    16    21 1
@<TRIPOS>SUBSTRUCTURE
      1 RUR               1 ****               0 ****  **** 
