@<TRIPOS>MOLECULE
modXNA-fragment:TAE:HEAD01:@C5':HEAD01STRIP:@O1,H6:TAIL01:@O3':TAIL01STRIP:@H7:HEAD03:@C1':HEAD03STRIP:@C6,H9,H10,H11
   37    38     1     0     0
SMALL
USER_CHARGES


@<TRIPOS>ATOM
      1 O1         -3.3160    1.9480   -0.9510 OH         1 TAE     -0.645225
      2 C5'        -3.9750    1.5600    0.2250 CT         1 TAE      0.176459
      3 H5'        -3.9350    2.3500    0.9730 H1         1 TAE      0.031682
      4 H5''       -5.0120    1.4030   -0.0380 H1         1 TAE      0.031682
      5 C4'        -3.4300    0.2700    0.8210 CT         1 TAE      0.186898
      6 H4'        -3.9170    0.1040    1.7800 H1         1 TAE      0.010461
      7 O4'        -3.7340   -0.8020   -0.0420 OS         1 TAE     -0.494091
      8 C1'        -2.5840   -1.5450   -0.3770 CT         1 TAE      0.418583
      9 H1'        -2.4300   -2.3380    0.3490 H1         1 TAE      0.026149
     10 C3'        -1.9040    0.2550    1.0120 CT         1 TAE      0.170781
     11 H3'        -1.4760    1.2490    1.0440 H1         1 TAE      0.047485
     12 C2'        -1.4620   -0.5260   -0.2230 CT         1 TAE      0.165958
     13 H2'        -1.4340    0.1340   -1.0760 H1         1 TAE      0.054458
     14 O2'        -0.2330   -1.2080   -0.1000 OS         1 TAE     -0.445433
     15 C15         0.8920   -0.5430   -0.0930 CQ         1 TAE      1.185753
     16 O3'        -1.5120   -0.4750    2.1430 OH         1 TAE     -0.671053
     17 H6         -2.5310    2.4370   -0.7440 HO         1 TAE      0.408633
     18 C6         -2.7440   -2.1250   -1.7660 CT         1 TAE     -0.399310
     19 H7         -1.7500   -0.0020    2.9280 HO         1 TAE      0.433094
     20 H9         -1.8530   -2.6780   -2.0470 HC         1 TAE      0.108328
     21 H10        -2.9150   -1.3340   -2.4880 HC         1 TAE      0.108328
     22 H11        -3.5900   -2.8030   -1.7940 HC         1 TAE      0.108328
     23 N23         1.9770   -1.2980    0.0100 NC         1 TAE     -1.024090
     24 C24         3.0990   -0.6220    0.0110 CQ         1 TAE      1.211476
     25 N25         3.2180    0.6970   -0.0850 NC         1 TAE     -1.039853
     26 C26         2.0730    1.3250   -0.1860 CQ         1 TAE      1.211476
     27 N27         0.8710    0.7650   -0.1970 NC         1 TAE     -1.024090
     28 O12         4.2330   -1.2630    0.1130 OS         1 TAE     -0.422098
     29 O13         2.0640    2.6300   -0.2870 OS         1 TAE     -0.422098
     30 C12         4.2180   -2.6760    0.2250 CT         1 TAE     -0.090780
     31 C13         3.2980    3.3280   -0.2930 CT         1 TAE     -0.090780
     32 H121        5.2550   -2.9640    0.3000 H1         1 TAE      0.112148
     33 H122        3.7650   -3.1230   -0.6470 H1         1 TAE      0.112148
     34 H123        3.6770   -2.9830    1.1070 H1         1 TAE      0.112148
     35 H131        3.0330    4.3700   -0.3880 H1         1 TAE      0.112148
     36 H132        3.9070    3.0170   -1.1290 H1         1 TAE      0.112148
     37 H133        3.8370    3.1580    0.6260 H1         1 TAE      0.112148
@<TRIPOS>BOND
    1     1     2 1
    2     2     5 1
    3     5     7 1
    4     5    10 1
    5     7     8 1
    6     8    12 1
    7     8    18 1
    8    10    12 1
    9    10    16 1
   10    12    14 1
   11    14    15 1
   12    15    23 1
   13    15    27 1
   14    23    24 1
   15    24    25 1
   16    24    28 1
   17    25    26 1
   18    26    27 1
   19    26    29 1
   20    28    30 1
   21    29    31 1
   22     1    17 1
   23     2     3 1
   24     2     4 1
   25     5     6 1
   26     8     9 1
   27    10    11 1
   28    12    13 1
   29    16    19 1
   30    18    20 1
   31    18    21 1
   32    18    22 1
   33    30    32 1
   34    30    33 1
   35    30    34 1
   36    31    35 1
   37    31    36 1
   38    31    37 1
@<TRIPOS>SUBSTRUCTURE
      1 TAE               1 ****               0 ****  **** 
