@<TRIPOS>MOLECULE
modXNA-fragment:U4M:HEAD01:@C5':HEAD01STRIP:@O2,H5:TAIL01:@O3':TAIL01STRIP:@H4:HEAD03:@C1':HEAD03STRIP:@C2,H8,H9,H10
   24    24     1     0     0
SMALL
USER_CHARGES


@<TRIPOS>ATOM
      1 C1'        -1.1980    0.4130    0.7460 CT         1 U4M      0.308946
      2 C2         -2.0690    1.6440    0.8800 CT         1 U4M     -0.295445
      3 C2'        -1.1130   -0.1730   -0.6540 CT         1 U4M      0.144178
      4 F2'        -2.1950   -0.9490   -0.9440 F          1 U4M     -0.273731
      5 C3'         0.1900   -0.9620   -0.6020 CT         1 U4M      0.169041
      6 O3'        -0.1020   -2.2120   -0.0420 OS         1 U4M     -0.690119
      7 C4'         1.0590   -0.0650    0.3230 CT         1 U4M      0.309218
      8 C5'         1.9710    0.8640   -0.4730 CI         1 U4M      0.048100
      9 O2          1.2420    1.4860   -1.4970 OH         1 U4M     -0.724718
     10 C6'         1.8970   -0.8530    1.3250 CT         1 U4M     -0.443047
     11 O4'         0.1400    0.7460    1.0380 OS         1 U4M     -0.507732
     12 H1'        -1.5440   -0.3670    1.4190 H2         1 U4M      0.028423
     13 H2'        -1.0470    0.6060   -1.3960 H1         1 U4M      0.059341
     14 H3'         0.6380   -1.0800   -1.5820 H1         1 U4M      0.027823
     15 H4          0.6480   -2.7840   -0.1200 HO         1 U4M      0.436822
     16 H5          1.7580    2.1770   -1.8870 HO         1 U4M      0.468657
     17 H6'1        2.4640   -0.1680    1.9460 HC         1 U4M      0.149620
     18 H6'2        1.2560   -1.4410    1.9670 HC         1 U4M      0.149620
     19 H8         -2.0480    2.0160    1.8980 HC         1 U4M      0.100030
     20 H9         -3.0960    1.4040    0.6230 HC         1 U4M      0.100030
     21 H10        -1.7150    2.4290    0.2210 HC         1 U4M      0.100030
     22 H6'3        2.5990   -1.5180    0.8280 HC         1 U4M      0.149620
     23 H5'         2.3780    1.6010    0.2130 H1         1 U4M      0.050203
     24 H5''        2.7970    0.2920   -0.8900 H1         1 U4M      0.050203
@<TRIPOS>BOND
    1     1     2 1
    2     1     3 1
    3     1    11 1
    4     3     4 1
    5     3     5 1
    6     5     6 1
    7     5     7 1
    8     7     8 1
    9     7    10 1
   10     7    11 1
   11     8     9 1
   12     1    12 1
   13     2    19 1
   14     2    20 1
   15     2    21 1
   16     3    13 1
   17     5    14 1
   18     6    15 1
   19     8    23 1
   20     8    24 1
   21     9    16 1
   22    10    17 1
   23    10    18 1
   24    10    22 1
@<TRIPOS>SUBSTRUCTURE
      1 U4M               1 ****               0 ****  **** 
