@<TRIPOS>MOLECULE
modXNA-fragment:U5M:HEAD01:@C5':HEAD01STRIP:@O1,H5:TAIL01:@O3':TAIL01STRIP:@H6:HEAD03:@C1':HEAD03STRIP:@C7,H8,H9,H10
   24    24     1     0     0
SMALL
USER_CHARGES


@<TRIPOS>ATOM
      1 O1          2.5380    1.4300    0.0580 OH         1 U5M     -0.694465
      2 C5'         1.9430    0.2560   -0.4170 CI         1 U5M      0.365175
      3 C6'         3.0190   -0.8170   -0.4170 CT         1 U5M     -0.279000
      4 H5'         1.5860    0.4110   -1.4360 H1         1 U5M     -0.045216
      5 C4'         0.7440   -0.0970    0.4610 CT         1 U5M      0.009348
      6 H4'         1.0970   -0.3800    1.4480 H1         1 U5M      0.086399
      7 O4'        -0.0510    1.0740    0.5810 OS         1 U5M     -0.504037
      8 C1'        -1.4170    0.7820    0.3860 CT         1 U5M      0.311312
      9 C3'        -0.1910   -1.1900   -0.0940 CT         1 U5M      0.170968
     10 H3'         0.2720   -1.7800   -0.8780 H1         1 U5M      0.028603
     11 C2'        -1.3540   -0.3570   -0.6170 CT         1 U5M      0.123549
     12 H2'        -1.1220    0.0280   -1.6040 H1         1 U5M      0.044756
     13 O3'        -0.6910   -2.0220    0.9140 OS         1 U5M     -0.673459
     14 H5          1.8520    2.0690    0.2120 HO         1 U5M      0.425235
     15 C7         -2.1480    2.0240   -0.0760 CT         1 U5M     -0.390550
     16 H6          0.0080   -2.5520    1.2700 HO         1 U5M      0.429349
     17 H1'        -1.8550    0.4060    1.3060 H2         1 U5M      0.039482
     18 F2'        -2.5190   -1.0480   -0.6980 F          1 U5M     -0.248255
     19 H8         -3.1900    1.7930   -0.2660 HC         1 U5M      0.138516
     20 H9         -1.7040    2.4130   -0.9860 HC         1 U5M      0.138516
     21 H10        -2.1010    2.7960    0.6840 HC         1 U5M      0.138516
     22 H6'1        2.6590   -1.7550   -0.8300 HC         1 U5M      0.092692
     23 H6'2        3.3770   -0.9920    0.5920 HC         1 U5M      0.092692
     24 H6'3        3.8590   -0.4860   -1.0160 HC         1 U5M      0.092692
@<TRIPOS>BOND
    1     1     2 1
    2     2     3 1
    3     2     5 1
    4     5     7 1
    5     5     9 1
    6     7     8 1
    7     8    11 1
    8     8    15 1
    9     9    11 1
   10     9    13 1
   11    11    18 1
   12     1    14 1
   13     2     4 1
   14     3    22 1
   15     3    23 1
   16     3    24 1
   17     5     6 1
   18     8    17 1
   19     9    10 1
   20    11    12 1
   21    13    16 1
   22    15    19 1
   23    15    20 1
   24    15    21 1
@<TRIPOS>SUBSTRUCTURE
      1 U5M               1 ****               0 ****  **** 
