@<TRIPOS>MOLECULE
modXNA-fragment:U5R:HEAD01:@C5':HEAD01STRIP:@O1,H5:TAIL01:@O3':TAIL01STRIP:@H6:HEAD03:@C1':HEAD03STRIP:@C7,H8,H9,H10
   24    24     1     0     0
SMALL
USER_CHARGES


@<TRIPOS>ATOM
      1 O1         -2.7270   -1.0160    0.4540 OH         1 U5R     -0.740892
      2 C5'        -1.9730    0.1760    0.4330 CI         1 U5R      0.342007
      3 H5'        -1.6700    0.3460    1.4600 H1         1 U5R      0.034067
      4 C6'        -2.8020    1.3580   -0.0430 CT         1 U5R     -0.332555
      5 C4'        -0.7250   -0.0530   -0.4130 CT         1 U5R     -0.010911
      6 H4'        -1.0260   -0.3290   -1.4210 H1         1 U5R      0.086462
      7 O4'         0.0340    1.1370   -0.4570 OS         1 U5R     -0.465038
      8 C1'         1.4090    0.8350   -0.3880 CT         1 U5R      0.268608
      9 C3'         0.2130   -1.1530    0.1350 CT         1 U5R      0.118558
     10 H3'        -0.2410   -1.6990    0.9520 H1         1 U5R      0.054524
     11 C2'         1.4190   -0.3320    0.5840 CT         1 U5R      0.174520
     12 H2'         1.2660    0.0310    1.5940 H1         1 U5R      0.028287
     13 O3'         0.6350   -2.0340   -0.8670 OS         1 U5R     -0.671774
     14 H5         -3.2790   -1.0550   -0.3160 HO         1 U5R      0.435614
     15 C7          2.1830    2.0610    0.0440 CT         1 U5R     -0.357854
     16 H6         -0.0630   -2.6470   -1.0560 HO         1 U5R      0.434965
     17 H1'         1.7660    0.4820   -1.3530 H2         1 U5R      0.057285
     18 F2'         2.5860   -1.0250    0.5590 F          1 U5R     -0.258347
     19 H8          3.2350    1.8190    0.1460 HC         1 U5R      0.126749
     20 H9          1.8140    2.4270    0.9970 HC         1 U5R      0.126749
     21 H10         2.0800    2.8530   -0.6880 HC         1 U5R      0.126749
     22 H6'1       -2.2260    2.2730   -0.0070 HC         1 U5R      0.113700
     23 H6'2       -3.6820    1.4690    0.5810 HC         1 U5R      0.113700
     24 H6'3       -3.1290    1.2100   -1.0710 HC         1 U5R      0.113700
@<TRIPOS>BOND
    1     1     2 1
    2     2     4 1
    3     2     5 1
    4     5     7 1
    5     5     9 1
    6     7     8 1
    7     8    11 1
    8     8    15 1
    9     9    11 1
   10     9    13 1
   11    11    18 1
   12     1    14 1
   13     2     3 1
   14     4    22 1
   15     4    23 1
   16     4    24 1
   17     5     6 1
   18     8    17 1
   19     9    10 1
   20    11    12 1
   21    13    16 1
   22    15    19 1
   23    15    20 1
   24    15    21 1
@<TRIPOS>SUBSTRUCTURE
      1 U5R               1 ****               0 ****  **** 
