@<TRIPOS>MOLECULE
modXNA-fragment:UFB:HEAD01:@C5':HEAD01STRIP:@O3,H10:TAIL01:@O3':TAIL01STRIP:@H4:HEAD03:@C1':HEAD03STRIP:@C2,H11,H12,H13
   25    25     1     0     0
SMALL
USER_CHARGES


@<TRIPOS>ATOM
      1 C1'        -1.4540    0.1120    0.7800 CT         1 UFB      0.276778
      2 C2         -2.6610    0.9730    1.0880 CT         1 UFB     -0.434204
      3 C2'        -1.3440   -0.3890   -0.6510 CT         1 UFB      0.102100
      4 F2'        -2.1090   -1.5080   -0.8650 F          1 UFB     -0.271425
      5 C3'         0.1420   -0.7060   -0.7750 CT         1 UFB      0.076654
      6 O3'         0.3880   -1.9970   -0.2850 OS         1 UFB     -0.646388
      7 C4'         0.7910    0.3400    0.1720 CT         1 UFB      0.206737
      8 O6'         1.4320    1.3570   -0.5070 OS         1 UFB     -0.308597
      9 C6'         0.6860    2.2240   -1.3120 CT         1 UFB      0.101541
     10 C5'         1.8230   -0.2500    1.1320 CI         1 UFB     -0.007930
     11 O3          2.8540   -0.9240    0.4810 OH         1 UFB     -0.647820
     12 O4'        -0.2760    0.8680    0.9290 OS         1 UFB     -0.467153
     13 H1'        -1.4340   -0.7500    1.4420 H2         1 UFB      0.037811
     14 H2'        -1.6610    0.3630   -1.3590 H1         1 UFB      0.078816
     15 H3'         0.5260   -0.6080   -1.7820 H1         1 UFB      0.079384
     16 H4         -0.2490   -2.5950   -0.6540 HO         1 UFB      0.445843
     17 H6'1        1.3800    2.9630   -1.6860 HC         1 UFB      0.022519
     18 H6'2       -0.0920    2.7220   -0.7470 HC         1 UFB      0.022519
     19 H6'3        0.2430    1.7140   -2.1640 HC         1 UFB      0.022519
     20 H5'         2.2600    0.5800    1.6670 H1         1 UFB      0.129040
     21 H5''        1.3120   -0.8880    1.8420 H1         1 UFB      0.129040
     22 H10         2.5100   -1.7490    0.1650 HO         1 UFB      0.438283
     23 H11        -2.6250    1.3180    2.1140 HC         1 UFB      0.162427
     24 H12        -3.5730    0.4030    0.9480 HC         1 UFB      0.162427
     25 H13        -2.6880    1.8410    0.4370 HC         1 UFB      0.162427
@<TRIPOS>BOND
    1     1     2 1
    2     1     3 1
    3     1    12 1
    4     3     4 1
    5     3     5 1
    6     5     6 1
    7     5     7 1
    8     7     8 1
    9     7    10 1
   10     7    12 1
   11     8     9 1
   12    10    11 1
   13     1    13 1
   14     2    23 1
   15     2    24 1
   16     2    25 1
   17     3    14 1
   18     5    15 1
   19     6    16 1
   20     9    17 1
   21     9    18 1
   22     9    19 1
   23    10    20 1
   24    10    21 1
   25    11    22 1
@<TRIPOS>SUBSTRUCTURE
      1 UFB               1 ****               0 ****  **** 
