@<TRIPOS>MOLECULE
modXNA-fragment:UMO:HEAD01:@C5':HEAD01STRIP:@O3,H10:TAIL01:@O3':TAIL01STRIP:@H4:HEAD03:@C1':HEAD03STRIP:@C2,H11,H12,H13
   25    25     1     0     0
SMALL
USER_CHARGES


@<TRIPOS>ATOM
      1 C1'         1.7130    0.6770   -0.1540 CT         1 UMO      0.309087
      2 C2          2.7280    1.3880    0.7220 CT         1 UMO     -0.356013
      3 C2'         1.5380   -0.8120    0.1490 CT         1 UMO      0.028212
      4 F2'         1.5640   -1.5330   -1.0220 F          1 UMO     -0.261883
      5 C3'         0.1390   -0.9120    0.7590 CT         1 UMO      0.234737
      6 O3'        -0.4820   -2.1250    0.5350 OS         1 UMO     -0.669440
      7 C4'        -0.5640    0.3140    0.1550 CT         1 UMO      0.055763
      8 O6'        -1.0160   -0.1010   -1.1000 OS         1 UMO     -0.300507
      9 C6'        -1.4870    0.8760   -1.9950 CT         1 UMO     -0.089295
     10 C5'        -1.6900    0.9010    0.9920 CI         1 UMO      0.235781
     11 O3         -2.7360   -0.0050    1.1700 OH         1 UMO     -0.681271
     12 O4'         0.4380    1.2680    0.0680 OS         1 UMO     -0.475985
     13 H1'         1.9760    0.7830   -1.1990 H2         1 UMO      0.058746
     14 H2'         2.3120   -1.2200    0.7820 H1         1 UMO      0.094070
     15 H3'         0.2060   -0.7750    1.8310 H1         1 UMO      0.064704
     16 H4         -0.4660   -2.2920   -0.4000 HO         1 UMO      0.437442
     17 H6'1       -1.5590    0.3970   -2.9610 HC         1 UMO      0.102085
     18 H6'2       -0.8030    1.7120   -2.0580 HC         1 UMO      0.102085
     19 H6'3       -2.4690    1.2360   -1.7080 HC         1 UMO      0.102085
     20 H5'        -2.0400    1.8180    0.5280 H1         1 UMO      0.034706
     21 H5''       -1.3000    1.1610    1.9670 H1         1 UMO      0.034706
     22 H10        -2.7540   -0.6170    0.4460 HO         1 UMO      0.421666
     23 H11         2.7120    2.4520    0.5190 HC         1 UMO      0.122000
     24 H12         3.7280    1.0150    0.5270 HC         1 UMO      0.122000
     25 H13         2.5010    1.2420    1.7740 HC         1 UMO      0.122000
@<TRIPOS>BOND
    1     1     2 1
    2     1     3 1
    3     1    12 1
    4     3     4 1
    5     3     5 1
    6     5     6 1
    7     5     7 1
    8     7     8 1
    9     7    10 1
   10     7    12 1
   11     8     9 1
   12    10    11 1
   13     1    13 1
   14     2    23 1
   15     2    24 1
   16     2    25 1
   17     3    14 1
   18     5    15 1
   19     6    16 1
   20     9    17 1
   21     9    18 1
   22     9    19 1
   23    10    20 1
   24    10    21 1
   25    11    22 1
@<TRIPOS>SUBSTRUCTURE
      1 UMO               1 ****               0 ****  **** 
