@<TRIPOS>MOLECULE
modXNA-fragment:YLX:HEAD01:@C5':HEAD01STRIP:@O10,HO10:TAIL01:@O3':TAIL01STRIP:@HHO3:HEAD03:@C1':HEAD03STRIP:@C6,H61,H62,H63
   21    21     1     0     0
SMALL
USER_CHARGES


@<TRIPOS>ATOM
      1 O3'        -0.7500    2.3150    0.0120 OS         1 YLX     -0.712738
      2 C1'         1.3770   -0.5780    0.4560 CT         1 YLX      0.354755
      3 C2'         1.0690    0.9060    0.7060 CT         1 YLX     -0.196056
      4 C3'         0.0720    1.2550   -0.3920 CT         1 YLX      0.361299
      5 C4'        -0.6560   -0.0760   -0.6120 CT         1 YLX      0.013635
      6 O4'         0.3350   -1.0550   -0.3880 OS         1 YLX     -0.460872
      7 H1'         1.3430   -1.1380    1.3840 H1         1 YLX      0.026799
      8 H2'1        1.9550    1.5280    0.6750 HC         1 YLX      0.070380
      9 H3'         0.6030    1.5190   -1.3030 H1         1 YLX      0.011278
     10 C5'        -1.8360   -0.3190    0.3190 CT         1 YLX      0.309145
     11 C6          2.7100   -0.8350   -0.2280 CT         1 YLX     -0.491774
     12 H4'        -0.9970   -0.2010   -1.6340 H1         1 YLX      0.068481
     13 HHO3       -1.2410    2.6440   -0.7280 HO         1 YLX      0.424777
     14 H2'2        0.5930    1.0580    1.6670 HC         1 YLX      0.070380
     15 H61         3.5340   -0.5620    0.4240 HC         1 YLX      0.129979
     16 H62         2.7910   -0.2600   -1.1460 HC         1 YLX      0.129979
     17 H63         2.8050   -1.8850   -0.4790 HC         1 YLX      0.129979
     18 O10        -2.3370   -1.6120    0.1320 OH         1 YLX     -0.688835
     19 H101       -2.6410    0.3690    0.1010 H1         1 YLX      0.014118
     20 H102       -1.5430   -0.1630    1.3540 H1         1 YLX      0.014118
     21 HO10       -1.6020   -2.2130    0.1540 HO         1 YLX      0.421173
@<TRIPOS>BOND
    1     1     4 1
    2     2     3 1
    3     2     6 1
    4     2    11 1
    5     3     4 1
    6     4     5 1
    7     5     6 1
    8     5    10 1
    9    10    18 1
   10     1    13 1
   11     2     7 1
   12     3     8 1
   13     3    14 1
   14     4     9 1
   15     5    12 1
   16    10    19 1
   17    10    20 1
   18    11    15 1
   19    11    16 1
   20    11    17 1
   21    18    21 1
@<TRIPOS>SUBSTRUCTURE
      1 YLX               1 ****               0 ****  **** 
