@<TRIPOS>MOLECULE
modXNA-5'-fragment:DPO:HEAD01:@HO5':HEAD01STRIP:NONE:TAIL01:@O5':TAIL01STRIP:@C5',H5'1,H5'2,H5'3
   6     5     1     0     0
SMALL
USER_CHARGES


@<TRIPOS>ATOM
      1 HO5'       -0.4750    0.1600   -0.0250 HO         1 5PO      0.437230
      2 O5'         0.9380   -0.2250   -0.7640 OH         1 5PO     -0.640780
      3 C5'         2.1230   -0.0970   -0.0430 CT         1 5PO     -5.280519
      4 H5'1        2.1370   -0.7580    0.8200 H1         1 5PO      1.651005
      5 H5'2        2.2680    0.9190    0.3020 H1         1 5PO      1.651005
      6 H5'3        2.9430   -0.3730   -0.7000 H1         1 5PO      1.651005
@<TRIPOS>BOND
    1     1     2 1
    2     2     3 1
    3     3     4 1
    4     3     5 1
    5     3     6 1
@<TRIPOS>SUBSTRUCTURE
      1 5PO               1 ****               0 ****  **** 
