@<TRIPOS>MOLECULE
modXNA-fragment:BPO:HEAD01:@P:HEAD01STRIP:@O3',C1,H1,H2,H3:TAIL01:@O5':TAIL01STRIP:@C2,H4,H5,H6
   13    12     1     0     0
SMALL
USER_CHARGES


@<TRIPOS>ATOM
      1 C1          -1.9530     1.1410     0.0610 CT         1 BPO       0.181023
      2 H1          -2.4850     1.7960     0.7470 H1         1 BPO       0.001172
      3 H2          -2.6530     0.4490    -0.3900 H1         1 BPO       0.001172
      4 H3          -1.5190     1.7500    -0.7290 H1         1 BPO       0.001172
      5 O3'         -0.9720     0.4710     0.7880 OS         1 BPO      -0.511727
      6 P            0.0000    -0.5920     0.0000 P          1 BPO       1.278174
      7 OP1         -0.7910    -1.2730    -1.0350 O2         1 BPO      -0.811899
      8 OP2          0.7920    -1.2720     1.0350 O2         1 BPO      -0.811899
      9 O5'          0.9720     0.4710    -0.7880 OS         1 BPO      -0.511727
     10 C2           1.9520     1.1420    -0.0610 CT         1 BPO       0.181023
     11 H4           1.5180     1.7540     0.7250 H1         1 BPO       0.001172
     12 H5           2.6500     0.4500     0.3930 H1         1 BPO       0.001172
     13 H6           2.4870     1.7930    -0.7480 H1         1 BPO       0.001172
@<TRIPOS>BOND
    1     1     5 1
    2     5     6 1
    3     6     7 1
    4     6     8 1
    5     6     9 1
    6     9    10 1
    7     1     2 1
    8     1     3 1
    9     1     4 1
   10    10    11 1
   11    10    12 1
   12    10    13 1
@<TRIPOS>SUBSTRUCTURE
      1 BPO               1 ****               0 ****  **** 
