@<TRIPOS>MOLECULE
modXNA-fragment:DPO:HEAD01:@P:HEAD01STRIP:@O3',C3,H31,H32,H33:TAIL01:@O5':TAIL01STRIP:@C5',H5'1,H5'2,H5'3
   13    12     1 0 0
NUCLEIC_ACID
USER_CHARGES


@<TRIPOS>ATOM
      1 P            -0.808000   -8.873000   -2.080000 P        1 DPO        1.1659
      2 OP1          -2.029000   -8.583000   -1.290000 O2       1 DPO       -0.7761
      3 OP2          -0.196000  -10.198000   -1.860000 O2       1 DPO       -0.7761
      4 O5'           0.270000   -7.725000   -1.830000 OS       1 DPO       -0.4954
      5 C5'           1.364000   -7.578000   -2.770000 CJ       1 DPO        0.1500
      6 H5'1          1.104000   -6.836000   -3.525000 H1       1 DPO        0.0182
      7 H5'2          1.561000   -8.532000   -3.258000 H1       1 DPO        0.0182
      8 O3'          -1.195228   -8.803498   -3.527489 OS       1 DPO       -0.5232
      9 C3           -1.779497   -7.454439   -3.825261 CJ       1 DPO        0.1500
     10 H5'3          2.257559   -7.253395   -2.236818 H1       1 DPO        0.0182
     11 H31          -2.060879   -7.403911   -4.877056 H1       1 DPO        0.0181
     12 H32          -1.040768   -6.682402   -3.609846 H1       1 DPO        0.0181
     13 H33          -2.662006   -7.295315   -3.205566 H1       1 DPO        0.0181
@<TRIPOS>BOND
     1    1    4 1
     2    4    5 1
     3    1    2 2
     4    1    3 1
     5    6    5 1
     6    7    5 1
     7    1    8 1
     8    8    9 1
     9    5   10 1
    10    9   11 1
    11    9   12 1
    12    9   13 1
@<TRIPOS>SUBSTRUCTURE
1 DPO 1 RESIDUE 1 S DA
@<TRIPOS>SET
GROUP:Nucleic_Acid_Groups:Sugar STATIC ATOMS <user>
5 4 5 6 7 10
GROUP:Nucleic_Acid_Groups:Phosphate STATIC ATOMS <user>
4 1 2 3 8
GROUP:Nucleic_Acid_Groups:Backbone STATIC ATOMS <user>
9 1 2 3 4 5 6 7 8 10
GROUP:Nucleic_Acid_Groups:Purine STATIC SUBSTRUCTURES <user>
1 1
GROUP:Nucleic_Acid_Groups:Base STATIC ATOMS <user>
4 9 11 12 13
GROUP:Nucleic_Acid_Groups:Pyrimidine STATIC SUBSTRUCTURES <user>
1 1
@<SCITEGIC>ATOM_PROPERTY
Formal Charge
SciTegic.value.StringValue
1 0
2 0
3 -1
4 0
5 0
6 0
7 0
8 0
9 0
10 0
11 0
12 0
13 0

@<SCITEGIC>ATOM_PROPERTY
pdb_tempFactor
SciTegic.value.DoubleValue
1 0.00
2 0.00
3 0.00
4 0.00
5 0.00
6 0.00
7 0.00
8 0.00
9 0.00
10 0.00
11 0.00
12 0.00
13 0.00

@<SCITEGIC>ATOM_PROPERTY
pdb_occupancy
SciTegic.value.DoubleValue
1 1.00
2 1.00
3 1.00
4 1.00
5 1.00
6 1.00
7 1.00
8 1.00
9 1.00
10 1.00
11 1.00
12 1.00
13 1.00

