@<TRIPOS>MOLECULE
modXNA-fragment:IB1:HEAD01:@P:HEAD01STRIP:@O3',C3,H31,H32,H33:TAIL01:@O5':TAIL01STRIP:@C5',H5'1,H5'2,H5'3
   25    24     1     0     0
SMALL
USER_CHARGES


@<TRIPOS>ATOM
      1 P          -0.6540   -0.2310    0.2980 P          1 IB1      1.093427
      2 OP1        -0.7140   -0.9040    1.5850 O2         1 IB1     -0.689124
      3 C2          0.8550   -0.5030   -0.6600 CT         1 IB1     -0.455618
      4 O5'        -0.8770    1.3380    0.4530 OS         1 IB1     -0.427575
      5 C5'        -1.0610    2.2400   -0.6180 CT         1 IB1      0.016905
      6 H5'1       -1.7920    1.8640   -1.3210 H1         1 IB1      0.076577
      7 H5'2       -0.1250    2.4230   -1.1300 H1         1 IB1      0.076577
      8 O3'        -1.7670   -0.6790   -0.7510 OS         1 IB1     -0.427575
      9 C3         -3.0780   -1.0140   -0.3160 CT         1 IB1      0.016905
     10 H5'3       -1.4150    3.1650   -0.1880 H1         1 IB1      0.076577
     11 H31        -3.6080   -1.3720   -1.1860 H1         1 IB1      0.076577
     12 H32        -3.5800   -0.1400    0.0810 H1         1 IB1      0.076577
     13 H33        -3.0370   -1.7820    0.4410 H1         1 IB1      0.076577
     14 H7          0.8690    0.1600   -1.5210 HC         1 IB1      0.103543
     15 H8          0.7550   -1.5100   -1.0540 HC         1 IB1      0.103543
     16 C9          2.1690   -0.3920    0.1390 CT         1 IB1      0.571278
     17 C9          3.3280   -0.9310   -0.7040 CT         1 IB1     -0.481884
     18 H10         2.0680   -1.0200    1.0190 HC         1 IB1     -0.039521
     19 C11         2.4590    1.0380    0.6050 CT         1 IB1     -0.481884
     20 H10         4.2590   -0.8950   -0.1460 HC         1 IB1      0.106352
     21 H11         3.4620   -0.3420   -1.6080 HC         1 IB1      0.106352
     22 H12         3.1590   -1.9610   -0.9990 HC         1 IB1      0.106352
     23 H13         3.3960    1.0740    1.1510 HC         1 IB1      0.106352
     24 H14         1.6830    1.4200    1.2570 HC         1 IB1      0.106352
     25 H15         2.5500    1.7120   -0.2440 HC         1 IB1      0.106352
@<TRIPOS>BOND
    1     1     2 1
    2     1     3 1
    3     1     4 1
    4     1     8 1
    5     3    16 1
    6     4     5 1
    7     8     9 1
    8    16    17 1
    9    16    19 1
   10     3    14 1
   11     3    15 1
   12     5     6 1
   13     5     7 1
   14     5    10 1
   15     9    11 1
   16     9    12 1
   17     9    13 1
   18    16    18 1
   19    17    20 1
   20    17    21 1
   21    17    22 1
   22    19    23 1
   23    19    24 1
   24    19    25 1
@<TRIPOS>SUBSTRUCTURE
      1 IB1               1 ****               0 ****  **** 
