@<TRIPOS>MOLECULE
modXNA-fragment:IB2:HEAD01:@P:HEAD01STRIP:@O3',C3,H31,H32,H33:TAIL01:@O5':TAIL01STRIP:@C5',H5'1,H5'2,H5'3
   25    24     1     0     0
SMALL
USER_CHARGES


@<TRIPOS>ATOM
      1 P           0.6370   -0.0480    0.4590 P          1 IB2      0.991096
      2 C2         -0.8960   -0.7950   -0.1430 CT         1 IB2     -0.344226
      3 OP2         0.5780    0.5680    1.7750 O2         1 IB2     -0.667825
      4 O5'         1.0480    0.9380   -0.7230 OS         1 IB2     -0.400975
      5 C5'         1.9860    1.9820   -0.5020 CT         1 IB2      0.004812
      6 H5'1        2.9670    1.5720   -0.2970 H1         1 IB2      0.079527
      7 H5'2        1.6730    2.5990    0.3270 H1         1 IB2      0.079527
      8 O3'         1.7310   -1.2040    0.4000 OS         1 IB2     -0.400975
      9 C3          2.1160   -1.8830   -0.7770 CT         1 IB2      0.004812
     10 H5'3        2.0190    2.5640   -1.4110 H1         1 IB2      0.079527
     11 H31         2.9970   -2.4550   -0.5320 H1         1 IB2      0.079527
     12 H32         2.3450   -1.1850   -1.5710 H1         1 IB2      0.079527
     13 H33         1.3340   -2.5590   -1.1030 H1         1 IB2      0.079527
     14 H7         -0.8160   -0.9520   -1.2160 HC         1 IB2      0.080668
     15 C8         -2.1840   -0.0170    0.1920 CT         1 IB2      0.500895
     16 H9         -0.9420   -1.7770    0.3200 HC         1 IB2      0.080668
     17 C9         -3.4040   -0.8720   -0.1660 CT         1 IB2     -0.539320
     18 C10        -2.2530    1.3420   -0.5100 CT         1 IB2     -0.539320
     19 H11        -2.1910    0.1540    1.2630 HC         1 IB2     -0.011583
     20 H10        -4.3240   -0.3620    0.1010 HC         1 IB2      0.127352
     21 H11        -3.3890   -1.8240    0.3570 HC         1 IB2      0.127352
     22 H12        -3.4380   -1.0790   -1.2330 HC         1 IB2      0.127352
     23 H13        -3.1930    1.8350   -0.2810 HC         1 IB2      0.127352
     24 H14        -2.1910    1.2290   -1.5890 HC         1 IB2      0.127352
     25 H15        -1.4530    2.0000   -0.1960 HC         1 IB2      0.127352
@<TRIPOS>BOND
    1     1     2 1
    2     1     3 1
    3     1     4 1
    4     1     8 1
    5     2    15 1
    6     4     5 1
    7     8     9 1
    8    15    17 1
    9    15    18 1
   10     2    14 1
   11     2    16 1
   12     5     6 1
   13     5     7 1
   14     5    10 1
   15     9    11 1
   16     9    12 1
   17     9    13 1
   18    15    19 1
   19    17    20 1
   20    17    21 1
   21    17    22 1
   22    18    23 1
   23    18    24 1
   24    18    25 1
@<TRIPOS>SUBSTRUCTURE
      1 IB2               1 ****               0 ****  **** 
