@<TRIPOS>MOLECULE
modXNA-fragment:MO1:HEAD01:@P:HEAD01STRIP:@O3',C3,H31,H32,H33:TAIL01:@O5':TAIL01STRIP:@C5',H5'1,H5'2,H5'3
   26    25     1     0     0
SMALL
USER_CHARGES


@<TRIPOS>ATOM
      1 P           1.0930   -0.2540   -0.1430 P          1 MO1      1.089410
      2 OP1         0.8150   -1.2780   -1.1370 O2         1 MO1     -0.692052
      3 C2         -0.1750    0.0190    1.1130 CT         1 MO1     -0.261011
      4 O5'         1.3760    1.1570   -0.8220 OS         1 MO1     -0.423161
      5 C5'         1.8510    2.3000   -0.1420 CT         1 MO1     -0.002333
      6 H5'1        2.7200    2.0610    0.4570 H1         1 MO1      0.082225
      7 H5'2        1.0780    2.7180    0.4910 H1         1 MO1      0.082225
      8 O3'         2.3720   -0.5320    0.7640 OS         1 MO1     -0.423161
      9 C3          3.5030   -1.2140    0.2380 CT         1 MO1     -0.002333
     10 H5'3        2.1180    3.0220   -0.8970 H1         1 MO1      0.082225
     11 H31         4.1750   -1.3790    1.0660 H1         1 MO1      0.082225
     12 H32         3.9930   -0.6090   -0.5140 H1         1 MO1      0.082225
     13 H33         3.2040   -2.1570   -0.1960 H1         1 MO1      0.082225
     14 H7          0.2250    0.7110    1.8470 HC         1 MO1      0.059161
     15 H8         -0.3040   -0.9280    1.6290 HC         1 MO1      0.059161
     16 C9         -1.5240    0.5350    0.5830 CT         1 MO1      0.054096
     17 H9         -2.1230    0.8300    1.4390 HC         1 MO1      0.011236
     18 C10        -2.3010   -0.4860   -0.2490 CT         1 MO1      0.240738
     19 H11        -1.3800    1.4280   -0.0160 HC         1 MO1      0.011236
     20 O11        -3.5470    0.0190   -0.6400 OS         1 MO1     -0.444404
     21 H12        -2.4250   -1.4120    0.3120 H1         1 MO1      0.019705
     22 H13        -1.7620   -0.7260   -1.1530 H1         1 MO1      0.019705
     23 C13        -4.5870   -0.1620    0.2680 CT         1 MO1      0.068649
     24 H13        -5.4800    0.2550   -0.1770 H1         1 MO1      0.040670
     25 H14        -4.4060    0.3440    1.2140 H1         1 MO1      0.040670
     26 H15        -4.7570   -1.2180    0.4700 H1         1 MO1      0.040670
@<TRIPOS>BOND
    1     1     2 1
    2     1     3 1
    3     1     4 1
    4     1     8 1
    5     3    16 1
    6     4     5 1
    7     8     9 1
    8    16    18 1
    9    18    20 1
   10    20    23 1
   11     3    14 1
   12     3    15 1
   13     5     6 1
   14     5     7 1
   15     5    10 1
   16     9    11 1
   17     9    12 1
   18     9    13 1
   19    16    17 1
   20    16    19 1
   21    18    21 1
   22    18    22 1
   23    23    24 1
   24    23    25 1
   25    23    26 1
@<TRIPOS>SUBSTRUCTURE
      1 MO1               1 ****               0 ****  **** 
