@<TRIPOS>MOLECULE
modXNA-fragment:MO2:HEAD01:@P:HEAD01STRIP:@O3',C3,H31,H32,H33:TAIL01:@O5':TAIL01STRIP:@C5',H5'1,H5'2,H5'3
   26    25     1     0     0
SMALL
USER_CHARGES


@<TRIPOS>ATOM
      1 P          -1.2380   -0.0720    0.4620 P          1 MO2      1.049034
      2 C2          0.2360    0.8550   -0.0070 CT         1 MO2     -0.264697
      3 OP2        -1.1240   -0.8800    1.6650 O2         1 MO2     -0.685932
      4 O5'        -1.5580   -0.8880   -0.8670 OS         1 MO2     -0.410380
      5 C5'        -2.3550   -2.0650   -0.8290 CT         1 MO2     -0.013424
      6 H5'1       -3.3780   -1.8200   -0.5760 H1         1 MO2      0.084326
      7 H5'2       -1.9590   -2.7620   -0.1060 H1         1 MO2      0.084326
      8 O3'        -2.4150    0.9910    0.5760 OS         1 MO2     -0.410380
      9 C3         -2.8860    1.7950   -0.4860 CT         1 MO2     -0.013424
     10 H5'3       -2.3180   -2.4930   -1.8200 H1         1 MO2      0.084326
     11 H31        -3.8270    2.2150   -0.1650 H1         1 MO2      0.084326
     12 H32        -3.0380    1.2080   -1.3820 H1         1 MO2      0.084326
     13 H33        -2.1910    2.6000   -0.6930 H1         1 MO2      0.084326
     14 H7          0.0470    1.3790   -0.9400 HC         1 MO2      0.065295
     15 C8          1.4810   -0.0320   -0.1340 CT         1 MO2      0.083566
     16 H9          0.3810    1.6100    0.7620 HC         1 MO2      0.065295
     17 C9          2.7210    0.7950   -0.4610 CT         1 MO2      0.080331
     18 H10         1.3370   -0.7640   -0.9210 HC         1 MO2      0.030418
     19 H11         1.6220   -0.5790    0.7910 HC         1 MO2      0.030418
     20 O11         3.8570    0.0110   -0.6770 OS         1 MO2     -0.429115
     21 H12         2.9090    1.5230    0.3290 H1         1 MO2      0.049980
     22 H13         2.5590    1.3470   -1.3800 H1         1 MO2      0.049980
     23 C13         4.5110   -0.4400    0.4690 CT         1 MO2      0.103859
     24 H13         5.4010   -0.9620    0.1450 H1         1 MO2      0.037741
     25 H14         3.9000   -1.1260    1.0500 H1         1 MO2      0.037741
     26 H15         4.8040    0.3900    1.1080 H1         1 MO2      0.037741
@<TRIPOS>BOND
    1     1     2 1
    2     1     3 1
    3     1     4 1
    4     1     8 1
    5     2    15 1
    6     4     5 1
    7     8     9 1
    8    15    17 1
    9    17    20 1
   10    20    23 1
   11     2    14 1
   12     2    16 1
   13     5     6 1
   14     5     7 1
   15     5    10 1
   16     9    11 1
   17     9    12 1
   18     9    13 1
   19    15    18 1
   20    15    19 1
   21    17    21 1
   22    17    22 1
   23    23    24 1
   24    23    25 1
   25    23    26 1
@<TRIPOS>SUBSTRUCTURE
      1 MO2               1 ****               0 ****  **** 
