@<TRIPOS>MOLECULE
modXNA-fragment:MP1:HEAD01:@P:HEAD01STRIP:@O3',C3,H31,H32,H33:TAIL01:@O5':TAIL01STRIP:@C5',H5'1,H5'2,H5'3
   16    15     1     0     0
SMALL
USER_CHARGES


@<TRIPOS>ATOM
      1 P           0.0110   -0.4910   -0.1770 P          1 MP1      1.199335
      2 OP1         0.7000   -1.2060   -1.2370 O2         1 MP1     -0.715372
      3 C2         -0.8660   -1.5060    1.0210 CT         1 MP1     -0.420049
      4 O5'        -1.0500    0.5410   -0.7580 OS         1 MP1     -0.448271
      5 C5'        -1.7640    1.4830    0.0160 CT         1 MP1     -0.013358
      6 H5'1       -1.1010    2.0320    0.6700 H1         1 MP1      0.085054
      7 H5'2       -2.5300    0.9920    0.6030 H1         1 MP1      0.085054
      8 O3'         0.9490    0.3820    0.7670 OS         1 MP1     -0.448271
      9 C3          2.1030    1.0290    0.2460 CT         1 MP1     -0.013358
     10 H5'3       -2.2330    2.1630   -0.6780 H1         1 MP1      0.085054
     11 H31         2.6230    1.4560    1.0900 H1         1 MP1      0.085054
     12 H32         1.8180    1.8160   -0.4400 H1         1 MP1      0.085054
     13 H33         2.7350    0.3160   -0.2620 H1         1 MP1      0.085054
     14 H7         -1.2920   -0.9110    1.8200 HC         1 MP1      0.116339
     15 H8         -0.1730   -2.2180    1.4510 HC         1 MP1      0.116339
     16 H9         -1.6560   -2.0510    0.5180 HC         1 MP1      0.116339
@<TRIPOS>BOND
    1     1     2 1
    2     1     3 1
    3     1     4 1
    4     1     8 1
    5     4     5 1
    6     8     9 1
    7     3    14 1
    8     3    15 1
    9     3    16 1
   10     5     6 1
   11     5     7 1
   12     5    10 1
   13     9    11 1
   14     9    12 1
   15     9    13 1
@<TRIPOS>SUBSTRUCTURE
      1 MP1               1 ****               0 ****  **** 
