@<TRIPOS>MOLECULE
modXNA-fragment:MP2:HEAD01:@P:HEAD01STRIP:@O3',C3,H31,H32,H33:TAIL01:@O5':TAIL01STRIP:@C5',H5'1,H5'2,H5'3
   16    15     1     0     0
SMALL
USER_CHARGES


@<TRIPOS>ATOM
      1 P           0.0110   -0.4910   -0.1770 P          1 MP2      1.199174
      2 C2         -0.8670   -1.5060    1.0210 CT         1 MP2     -0.421093
      3 OP2         0.7000   -1.2070   -1.2370 O2         1 MP2     -0.715235
      4 O5'         0.9490    0.3820    0.7670 OS         1 MP2     -0.448090
      5 C5'         2.1030    1.0290    0.2460 CT         1 MP2     -0.013630
      6 H5'1        1.8170    1.8150   -0.4410 H1         1 MP2      0.085111
      7 H5'2        2.7350    0.3160   -0.2620 H1         1 MP2      0.085111
      8 O3'        -1.0490    0.5410   -0.7580 OS         1 MP2     -0.448090
      9 C3         -1.7630    1.4830    0.0160 CT         1 MP2     -0.013630
     10 H5'3        2.6230    1.4560    1.0900 H1         1 MP2      0.085111
     11 H31        -2.2320    2.1640   -0.6780 H1         1 MP2      0.085111
     12 H32        -1.1000    2.0320    0.6710 H1         1 MP2      0.085111
     13 H33        -2.5300    0.9930    0.6030 H1         1 MP2      0.085111
     14 H7         -1.2940   -0.9110    1.8190 HC         1 MP2      0.116643
     15 H8         -0.1730   -2.2170    1.4520 HC         1 MP2      0.116643
     16 H9         -1.6560   -2.0520    0.5180 HC         1 MP2      0.116643
@<TRIPOS>BOND
    1     1     2 1
    2     1     3 1
    3     1     4 1
    4     1     8 1
    5     4     5 1
    6     8     9 1
    7     2    14 1
    8     2    15 1
    9     2    16 1
   10     5     6 1
   11     5     7 1
   12     5    10 1
   13     9    11 1
   14     9    12 1
   15     9    13 1
@<TRIPOS>SUBSTRUCTURE
      1 MP2               1 ****               0 ****  **** 
