@<TRIPOS>MOLECULE
modXNA-fragment:NS1:HEAD01:@P:HEAD01STRIP:@O3',C3,H31,H32,H33:TAIL01:@O5':TAIL01STRIP:@C5',H5'1,H5'2,H5'3
   14    13     1     0     0
SMALL
USER_CHARGES


@<TRIPOS>ATOM
      1 P           0.0430   -0.2870    0.3490 P          1 NS1      0.878731
      2 S2          1.7030   -0.9970   -0.5040 S          1 NS1     -0.777884
      3 OP2        -0.5300   -0.9100    1.5530 O2         1 NS1     -0.708152
      4 N5'        -1.1110   -0.1940   -0.9080 NT         1 NS1     -0.604212
      5 C5'        -2.5100   -0.1430   -0.5320 CT         1 NS1      0.081873
      6 H5'1       -2.6700    0.6930    0.1380 H1         1 NS1      0.020900
      7 H5'2       -2.8590   -1.0400   -0.0260 H1         1 NS1      0.020900
      8 O3'         0.2220    1.2950    0.7010 OS         1 NS1     -0.415298
      9 C3          0.7320    2.2060   -0.2260 CT         1 NS1      0.343914
     10 H5'3       -3.1190    0.0200   -1.4180 H1         1 NS1      0.020900
     11 H31         0.6540    3.1940    0.2190 H1         1 NS1     -0.050383
     12 H32         0.1630    2.1880   -1.1490 H1         1 NS1     -0.050383
     13 H33         1.7700    1.9950   -0.4500 H1         1 NS1     -0.050383
     14 H7         -0.9210   -0.8780   -1.6100 H          1 NS1      0.289477
@<TRIPOS>BOND
    1     1     2 1
    2     1     3 1
    3     1     4 1
    4     1     8 1
    5     4     5 1
    6     8     9 1
    7     4    14 1
    8     5     6 1
    9     5     7 1
   10     5    10 1
   11     9    11 1
   12     9    12 1
   13     9    13 1
@<TRIPOS>SUBSTRUCTURE
      1 NS1               1 ****               0 ****  **** 
