@<TRIPOS>MOLECULE
modXNA-fragment:NS2:HEAD01:@P:HEAD01STRIP:@O3',C3,H31,H32,H33:TAIL01:@O5':TAIL01STRIP:@C5',H5'1,H5'2,H5'3
   14    13     1     0     0
SMALL
USER_CHARGES


@<TRIPOS>ATOM
      1 P           0.0170   -0.3380    0.3080 P          1 NS2      0.860704
      2 OP1        -0.5530   -0.9910    1.5030 O2         1 NS2     -0.714405
      3 S3          1.7230   -0.9710   -0.4950 S          1 NS2     -0.755271
      4 N5'         0.0680    1.3310    0.6700 NT         1 NS2     -0.675434
      5 C5'         0.7420    2.2640   -0.2070 CT         1 NS2      0.073895
      6 H5'1        0.3700    2.1340   -1.2150 H1         1 NS2      0.020303
      7 H5'2        1.8210    2.1340   -0.2350 H1         1 NS2      0.020303
      8 O3'        -1.0680   -0.3210   -0.9110 OS         1 NS2     -0.445741
      9 C3         -2.4150   -0.1070   -0.5970 CT         1 NS2      0.387251
     10 H5'3        0.5170    3.2830    0.1040 H1         1 NS2      0.020303
     11 H31        -2.9690   -0.1230   -1.5300 H1         1 NS2     -0.048077
     12 H32        -2.5590    0.8560   -0.1170 H1         1 NS2     -0.048077
     13 H33        -2.7900   -0.8820    0.0590 H1         1 NS2     -0.048077
     14 H7          0.3250    1.4450    1.6290 H          1 NS2      0.352322
@<TRIPOS>BOND
    1     1     2 1
    2     1     3 1
    3     1     4 1
    4     1     8 1
    5     4     5 1
    6     8     9 1
    7     4    14 1
    8     5     6 1
    9     5     7 1
   10     5    10 1
   11     9    11 1
   12     9    12 1
   13     9    13 1
@<TRIPOS>SUBSTRUCTURE
      1 NS2               1 ****               0 ****  **** 
