@<TRIPOS>MOLECULE
modXNA-fragment:PC1:HEAD01:@P:HEAD01STRIP:@O3',C3,H31,H32,H33:TAIL01:@O5':TAIL01STRIP:@C5',H5'1,H5'2,H5'3
   18    17     1     0     0
SMALL
USER_CHARGES


@<TRIPOS>ATOM
      1 P           0.7080   -0.3870   -0.4620 P          1 PC1      1.061986
      2 OP1         1.6870   -1.0680   -1.3120 O2         1 PC1     -0.749376
      3 C2         -0.8660   -1.2230   -0.2560 CT         1 PC1     -0.247843
      4 O5'         0.4740    1.0960   -0.9950 OS         1 PC1     -0.416234
      5 C5'        -0.3490    2.0680   -0.3640 CT         1 PC1     -0.056412
      6 H5'1       -0.3740    1.9220    0.7060 H1         1 PC1      0.084719
      7 H5'2       -1.3520    1.9930   -0.7520 H1         1 PC1      0.084719
      8 O3'         1.2370   -0.1770    1.0360 OS         1 PC1     -0.416234
      9 C3          2.5620    0.2410    1.2530 CT         1 PC1     -0.056412
     10 H5'3        0.0820    3.0330   -0.5970 H1         1 PC1      0.084719
     11 H31         2.7060    0.2890    2.3230 H1         1 PC1      0.084719
     12 H32         2.7340    1.2240    0.8270 H1         1 PC1      0.084719
     13 H33         3.2620   -0.4580    0.8170 H1         1 PC1      0.084719
     14 C7         -2.0470   -0.3830    0.3510 C          1 PC1      0.875669
     15 H8         -0.6610   -2.0750    0.3840 HC         1 PC1      0.050309
     16 H9         -1.1370   -1.5800   -1.2430 HC         1 PC1      0.050309
     17 O9         -2.8720    0.0090   -0.4740 O2         1 PC1     -0.802037
     18 O11        -1.9870   -0.2050    1.5640 O2         1 PC1     -0.802037
@<TRIPOS>BOND
    1     1     2 1
    2     1     3 1
    3     1     4 1
    4     1     8 1
    5     3    14 1
    6     4     5 1
    7     8     9 1
    8    14    17 1
    9    14    18 1
   10     3    15 1
   11     3    16 1
   12     5     6 1
   13     5     7 1
   14     5    10 1
   15     9    11 1
   16     9    12 1
   17     9    13 1
@<TRIPOS>SUBSTRUCTURE
      1 PC1               1 ****               0 ****  **** 
