@<TRIPOS>MOLECULE
modXNA-fragment:PC2:HEAD01:@P:HEAD01STRIP:@O3',C3,H31,H32,H33:TAIL01:@O5':TAIL01STRIP:@C5',H5'1,H5'2,H5'3
   18    17     1     0     0
SMALL
USER_CHARGES


@<TRIPOS>ATOM
      1 P           0.6070   -0.0080    0.5170 P          1 PC2      1.132144
      2 C2         -0.7710   -1.0990    0.1280 CT         1 PC2     -0.172630
      3 OP2         0.6430    0.5830    1.8500 O2         1 PC2     -0.734464
      4 O5'         0.8130    1.0110   -0.6900 OS         1 PC2     -0.445345
      5 C5'         0.3010    2.3350   -0.6860 CT         1 PC2     -0.098136
      6 H5'1        0.2110    2.7000    0.3260 H1         1 PC2      0.094603
      7 H5'2       -0.6670    2.3440   -1.1550 H1         1 PC2      0.094603
      8 O3'         1.9100   -0.9370    0.2890 OS         1 PC2     -0.445345
      9 C3          2.4090   -1.2800   -0.9740 CT         1 PC2     -0.098136
     10 H5'3        1.0130    2.9410   -1.2340 H1         1 PC2      0.094603
     11 H31         3.1950   -2.0080   -0.8190 H1         1 PC2      0.094603
     12 H32         2.8150   -0.4130   -1.4780 H1         1 PC2      0.094603
     13 H33         1.6450   -1.7240   -1.6040 H1         1 PC2      0.094603
     14 H7         -0.5260   -1.6970   -0.7450 HC         1 PC2     -0.003891
     15 C8         -2.1480   -0.4020   -0.1330 C          1 PC2      0.924206
     16 H9         -0.8750   -1.7930    0.9560 HC         1 PC2     -0.003891
     17 O9         -3.0660   -1.1810   -0.3540 O2         1 PC2     -0.811065
     18 O10        -2.1320    0.8310   -0.0950 O2         1 PC2     -0.811065
@<TRIPOS>BOND
    1     1     2 1
    2     1     3 1
    3     1     4 1
    4     1     8 1
    5     2    15 1
    6     4     5 1
    7     8     9 1
    8    15    17 1
    9    15    18 1
   10     2    14 1
   11     2    16 1
   12     5     6 1
   13     5     7 1
   14     5    10 1
   15     9    11 1
   16     9    12 1
   17     9    13 1
@<TRIPOS>SUBSTRUCTURE
      1 PC2               1 ****               0 ****  **** 
