@<TRIPOS>MOLECULE
modXNA-fragment:PN1:HEAD01:@P:HEAD01STRIP:@O3',C3,H31,H32,H33:TAIL01:@O5':TAIL01STRIP:@C5',H5'1,H5'2,H5'3
   31    31     1     0     0
SMALL
USER_CHARGES


@<TRIPOS>ATOM
      1 P          -1.4910   -0.0160    0.4690 P          1 PN1      1.144205
      2 OP1        -1.7460   -0.9540    1.5550 O2         1 PN1     -0.703774
      3 C2          0.0950    0.7170    0.2890 CM         1 PN1     -0.902197
      4 O5'        -2.4610    1.2500    0.5660 OS         1 PN1     -0.434693
      5 C5'        -2.6980    2.1390   -0.5010 CT         1 PN1      0.088009
      6 H5'1       -3.3030    2.9440   -0.1090 H1         1 PN1      0.050057
      7 H5'2       -3.2300    1.6440   -1.3030 H1         1 PN1      0.050057
      8 O3'        -1.8440   -0.6470   -0.9650 OS         1 PN1     -0.434693
      9 C3         -2.9560   -1.5150   -1.0930 CT         1 PN1      0.088009
     10 H5'3       -1.7730    2.5440   -0.8920 H1         1 PN1      0.050057
     11 H31        -2.9740   -1.8470   -2.1210 H1         1 PN1      0.050057
     12 H32        -3.8780   -0.9940   -0.8670 H1         1 PN1      0.050057
     13 H33        -2.8570   -2.3600   -0.4290 H1         1 PN1      0.050057
     14 C8          1.3260    0.1760    0.0960 CM         1 PN1      0.566821
     15 N18         1.6890   -1.1220   -0.1450 NT         1 PN1     -0.219932
     16 C19         3.1320   -1.2530   -0.0740 CT         1 PN1     -0.105235
     17 C20         3.5790    0.1530   -0.4290 CT         1 PN1     -0.105235
     18 N21         2.4790    0.9320    0.1000 NT         1 PN1     -0.219932
     19 7H12        3.4580   -1.5290    0.9270 H1         1 PN1      0.108421
     20 8H12        3.4840   -2.0010   -0.7720 H1         1 PN1      0.108421
     21 9H12        4.5140    0.4340    0.0390 H1         1 PN1      0.108421
     22 0H13        3.6780    0.2750   -1.5070 H1         1 PN1      0.108421
     23 H11         0.0700    1.7750    0.4560 HA         1 PN1      0.308243
     24 C12         0.8770   -2.2730    0.1970 CT         1 PN1     -0.314649
     25 C13         2.4670    2.3590   -0.1070 CT         1 PN1     -0.314649
     26 H12         1.4360   -3.1600   -0.0740 H1         1 PN1      0.137612
     27 H13        -0.0370   -2.2720   -0.3730 H1         1 PN1      0.137612
     28 H14         0.6350   -2.3100    1.2530 H1         1 PN1      0.137612
     29 H15         1.9240    2.8560    0.6850 H1         1 PN1      0.137612
     30 H16         2.0280    2.6360   -1.0640 H1         1 PN1      0.137612
     31 H17         3.4880    2.7150   -0.0770 H1         1 PN1      0.137612
@<TRIPOS>BOND
    1     1     2 1
    2     1     3 1
    3     1     4 1
    4     1     8 1
    5     3    14 1
    6     4     5 1
    7     8     9 1
    8    14    15 1
    9    14    18 1
   10    15    16 1
   11    15    24 1
   12    16    17 1
   13    17    18 1
   14    18    25 1
   15     3    23 1
   16     5     6 1
   17     5     7 1
   18     5    10 1
   19     9    11 1
   20     9    12 1
   21     9    13 1
   22    16    19 1
   23    16    20 1
   24    17    21 1
   25    17    22 1
   26    24    26 1
   27    24    27 1
   28    24    28 1
   29    25    29 1
   30    25    30 1
   31    25    31 1
@<TRIPOS>SUBSTRUCTURE
      1 PN1               1 ****               0 ****  **** 
