@<TRIPOS>MOLECULE
modXNA-fragment:PN2:HEAD01:@P:HEAD01STRIP:@O3',C3,H31,H32,H33:TAIL01:@O5':TAIL01STRIP:@C5',H5'1,H5'2,H5'3
   31    31     1     0     0
SMALL
USER_CHARGES


@<TRIPOS>ATOM
      1 P           1.4910   -0.0150   -0.4690 P          1 PN2      1.137053
      2 C2         -0.0950    0.7170   -0.2890 CM         1 PN2     -0.892389
      3 OP2         1.7460   -0.9540   -1.5550 O2         1 PN2     -0.701895
      4 O5'         1.8440   -0.6470    0.9650 OS         1 PN2     -0.433798
      5 C5'         2.9560   -1.5150    1.0930 CT         1 PN2      0.087238
      6 H5'1        2.9730   -1.8480    2.1210 H1         1 PN2      0.050346
      7 H5'2        3.8790   -0.9940    0.8680 H1         1 PN2      0.050346
      8 O3'         2.4610    1.2510   -0.5660 OS         1 PN2     -0.433798
      9 C3          2.6980    2.1400    0.5010 CT         1 PN2      0.087238
     10 H5'3        2.8570   -2.3600    0.4280 H1         1 PN2      0.050346
     11 H31         3.3030    2.9440    0.1090 H1         1 PN2      0.050346
     12 H32         3.2300    1.6450    1.3030 H1         1 PN2      0.050346
     13 H33         1.7730    2.5450    0.8920 H1         1 PN2      0.050346
     14 C8         -1.3260    0.1760   -0.0960 CM         1 PN2      0.557180
     15 N17        -1.6890   -1.1220    0.1450 NT         1 PN2     -0.217933
     16 C18        -3.1320   -1.2530    0.0740 CT         1 PN2     -0.101061
     17 C19        -3.5790    0.1530    0.4290 CT         1 PN2     -0.101061
     18 N20        -2.4790    0.9320   -0.1000 NT         1 PN2     -0.217933
     19 H76        -3.4580   -1.5290   -0.9270 H1         1 PN2      0.107041
     20 H77        -3.4840   -2.0010    0.7720 H1         1 PN2      0.107041
     21 H78        -4.5140    0.4340   -0.0390 H1         1 PN2      0.107041
     22 H79        -3.6780    0.2750    1.5070 H1         1 PN2      0.107041
     23 C14        -0.8770   -2.2730   -0.1970 CT         1 PN2     -0.322536
     24 C15        -2.4670    2.3590    0.1070 CT         1 PN2     -0.322536
     25 H14        -1.4360   -3.1600    0.0730 H1         1 PN2      0.139887
     26 H15         0.0370   -2.2730    0.3740 H1         1 PN2      0.139887
     27 H16        -0.6340   -2.3100   -1.2520 H1         1 PN2      0.139887
     28 H17        -1.9240    2.8560   -0.6850 H1         1 PN2      0.139887
     29 H18        -2.0270    2.6360    1.0630 H1         1 PN2      0.139887
     30 H19        -3.4880    2.7150    0.0780 H1         1 PN2      0.139887
     31 H17        -0.0700    1.7750   -0.4560 HA         1 PN2      0.306670
@<TRIPOS>BOND
    1     1     2 1
    2     1     3 1
    3     1     4 1
    4     1     8 1
    5     2    14 1
    6     4     5 1
    7     8     9 1
    8    14    15 1
    9    14    18 1
   10    15    16 1
   11    15    23 1
   12    16    17 1
   13    17    18 1
   14    18    24 1
   15     2    31 1
   16     5     6 1
   17     5     7 1
   18     5    10 1
   19     9    11 1
   20     9    12 1
   21     9    13 1
   22    16    19 1
   23    16    20 1
   24    17    21 1
   25    17    22 1
   26    23    25 1
   27    23    26 1
   28    23    27 1
   29    24    28 1
   30    24    29 1
   31    24    30 1
@<TRIPOS>SUBSTRUCTURE
      1 PN2               1 ****               0 ****  **** 
