@<TRIPOS>MOLECULE
modXNA-fragment:PR1:HEAD01:@P:HEAD01STRIP:@O3',C3,H31,H32,H33:TAIL01:@O5':TAIL01STRIP:@C5',H5'1,H5'2,H5'3
   22    21     1     0     0
SMALL
USER_CHARGES


@<TRIPOS>ATOM
      1 P           0.4500   -0.2710   -0.2900 P          1 PR1      1.003291
      2 OP1         0.6170   -1.1800   -1.4120 O2         1 PR1     -0.671613
      3 C2         -1.1170   -0.3840    0.5960 CT         1 PR1     -0.102501
      4 O5'         0.6190    1.2470   -0.7390 OS         1 PR1     -0.420722
      5 C5'         0.6880    2.3440    0.1470 CT         1 PR1     -0.013935
      6 H5'1        1.4070    2.1640    0.9350 H1         1 PR1      0.085354
      7 H5'2       -0.2830    2.5470    0.5830 H1         1 PR1      0.085354
      8 O3'         1.5020   -0.4600    0.8900 OS         1 PR1     -0.420722
      9 C3          2.8370   -0.8640    0.6170 CT         1 PR1     -0.013935
     10 H5'3        0.9970    3.1970   -0.4370 H1         1 PR1      0.085354
     11 H31         3.3100   -1.0290    1.5730 H1         1 PR1      0.085354
     12 H32         3.3650   -0.0860    0.0800 H1         1 PR1      0.085354
     13 H33         2.8420   -1.7720    0.0340 H1         1 PR1      0.085354
     14 H7         -1.1030    0.2960    1.4420 HC         1 PR1      0.019071
     15 H8         -1.1620   -1.3880    1.0070 HC         1 PR1      0.019071
     16 C9         -2.3360   -0.1210   -0.3000 CT         1 PR1      0.250559
     17 C9         -3.6510   -0.2800    0.4600 CT         1 PR1     -0.256451
     18 H10        -2.3110   -0.8050   -1.1410 HC         1 PR1     -0.039441
     19 H11        -2.2730    0.8810   -0.7150 HC         1 PR1     -0.039441
     20 H11        -4.4990   -0.0910   -0.1910 HC         1 PR1      0.058215
     21 H12        -3.7120    0.4130    1.2940 HC         1 PR1      0.058215
     22 H13        -3.7550   -1.2860    0.8560 HC         1 PR1      0.058215
@<TRIPOS>BOND
    1     1     2 1
    2     1     3 1
    3     1     4 1
    4     1     8 1
    5     3    16 1
    6     4     5 1
    7     8     9 1
    8    16    17 1
    9     3    14 1
   10     3    15 1
   11     5     6 1
   12     5     7 1
   13     5    10 1
   14     9    11 1
   15     9    12 1
   16     9    13 1
   17    16    18 1
   18    16    19 1
   19    17    20 1
   20    17    21 1
   21    17    22 1
@<TRIPOS>SUBSTRUCTURE
      1 PR1               1 ****               0 ****  **** 
