@<TRIPOS>MOLECULE
modXNA-fragment:PR2:HEAD01:@P:HEAD01STRIP:@O3',C3,H31,H32,H33:TAIL01:@O5':TAIL01STRIP:@C5',H5'1,H5'2,H5'3
   22    21     1     0     0
SMALL
USER_CHARGES


@<TRIPOS>ATOM
      1 P          -0.4290   -0.0460    0.4600 P          1 PR2      0.977423
      2 C2          1.1770    0.6290   -0.0070 CT         1 PR2     -0.121181
      3 OP2        -0.4680   -0.8100    1.6960 O2         1 PR2     -0.670495
      4 O5'        -0.8410   -0.8630   -0.8440 OS         1 PR2     -0.403578
      5 C5'        -1.8200   -1.8910   -0.7800 CT         1 PR2     -0.025194
      6 H5'1       -2.7950   -1.4710   -0.5640 H1         1 PR2      0.086871
      7 H5'2       -1.5600   -2.6090   -0.0170 H1         1 PR2      0.086871
      8 O3'        -1.4370    1.1840    0.4980 OS         1 PR2     -0.403578
      9 C3         -1.7460    2.0100   -0.6050 CT         1 PR2     -0.025194
     10 H5'3       -1.8360   -2.3630   -1.7500 H1         1 PR2      0.086871
     11 H31        -2.6250    2.5760   -0.3340 H1         1 PR2      0.086871
     12 H32        -1.9530    1.4200   -1.4880 H1         1 PR2      0.086871
     13 H33        -0.9330    2.6960   -0.8080 H1         1 PR2      0.086871
     14 H7          1.0890    1.1260   -0.9700 HC         1 PR2      0.030861
     15 C8          2.2860   -0.4310   -0.0570 CT         1 PR2      0.201600
     16 H9          1.4190    1.3930    0.7270 HC         1 PR2      0.030861
     17 C9          3.6440    0.1760   -0.4070 CT         1 PR2     -0.315617
     18 H10         2.0250   -1.1880   -0.7900 HC         1 PR2     -0.012467
     19 H11         2.3420   -0.9300    0.9040 HC         1 PR2     -0.012467
     20 H11         4.4130   -0.5890   -0.4360 HC         1 PR2      0.075933
     21 H12         3.9430    0.9180    0.3280 HC         1 PR2      0.075933
     22 H13         3.6210    0.6610   -1.3790 HC         1 PR2      0.075933
@<TRIPOS>BOND
    1     1     2 1
    2     1     3 1
    3     1     4 1
    4     1     8 1
    5     2    15 1
    6     4     5 1
    7     8     9 1
    8    15    17 1
    9     2    14 1
   10     2    16 1
   11     5     6 1
   12     5     7 1
   13     5    10 1
   14     9    11 1
   15     9    12 1
   16     9    13 1
   17    15    18 1
   18    15    19 1
   19    17    20 1
   20    17    21 1
   21    17    22 1
@<TRIPOS>SUBSTRUCTURE
      1 PR2               1 ****               0 ****  **** 
