@<TRIPOS>MOLECULE
modXNA-fragment:PS1:HEAD01:@P:HEAD01STRIP:@O3',C1,H1,H2,H3:TAIL01:@O5':TAIL01STRIP:@C2,H4,H5,H6
   13    12     1     0     0
SMALL
USER_CHARGES


@<TRIPOS>ATOM
      1 C1         -0.4810    2.2450   -0.0950 CT         1 PS1      0.170898
      2 H1         -0.2660    3.1900    0.3940 H1         1 PS1      0.010291
      3 H2         -1.5460    2.1660   -0.2740 H1         1 PS1      0.010291
      4 H3          0.0350    2.2170   -1.0480 H1         1 PS1      0.010291
      5 O3'        -0.0360    1.2290    0.7560 OS         1 PS1     -0.423863
      6 P          -0.0590   -0.3400    0.3080 P          1 PS1      0.863070
      7 S1         -1.8080   -0.7850   -0.5100 S          1 PS1     -0.736050
      8 OP2         0.5020   -1.1040    1.4290 O2         1 PS1     -0.682836
      9 O5'         1.0240   -0.2880   -0.9160 OS         1 PS1     -0.423863
     10 C2          2.3850   -0.2370   -0.5920 CT         1 PS1      0.170898
     11 H4          2.6230    0.6540   -0.0180 H1         1 PS1      0.010291
     12 H5          2.6840   -1.1050   -0.0200 H1         1 PS1      0.010291
     13 H6          2.9360   -0.2090   -1.5260 H1         1 PS1      0.010291
@<TRIPOS>BOND
    1     1     5 1
    2     5     6 1
    3     6     7 1
    4     6     8 1
    5     6     9 1
    6     9    10 1
    7     1     2 1
    8     1     3 1
    9     1     4 1
   10    10    11 1
   11    10    12 1
   12    10    13 1
@<TRIPOS>SUBSTRUCTURE
      1 PS1               1 ****               0 ****  **** 
