@<TRIPOS>MOLECULE
modXNA-fragment:PS2:HEAD01:@P:HEAD01STRIP:@O3',C3,H31,H32,H33:TAIL01:@O5':TAIL01STRIP:@C5',H5'1,H5'2,H5'3
   13    12     1     0     0
SMALL
USER_CHARGES


@<TRIPOS>ATOM
      1 P           0.0590   -0.3400    0.3080 P          1 PS1      0.863323
      2 OP1        -0.5000   -1.1060    1.4290 O2         1 PS1     -0.683072
      3 S2          1.8100   -0.7820   -0.5100 S          1 PS1     -0.736253
      4 O5'         0.0340    1.2290    0.7570 OS         1 PS1     -0.423468
      5 C5'         0.4760    2.2460   -0.0940 CT         1 PS1      0.170919
      6 H5'1       -0.0390    2.2140   -1.0490 H1         1 PS1      0.010183
      7 H5'2        1.5410    2.1710   -0.2710 H1         1 PS1      0.010183
      8 O3'        -1.0230   -0.2900   -0.9160 OS         1 PS1     -0.423468
      9 C3         -2.3850   -0.2400   -0.5920 CT         1 PS1      0.170919
     10 H5'3        0.2560    3.1900    0.3930 H1         1 PS1      0.010183
     11 H31        -2.9360   -0.2110   -1.5260 H1         1 PS1      0.010183
     12 H32        -2.6230    0.6510   -0.0170 H1         1 PS1      0.010183
     13 H33        -2.6820   -1.1090   -0.0210 H1         1 PS1      0.010183
@<TRIPOS>BOND
    1     1     2 1
    2     1     3 1
    3     1     4 1
    4     1     8 1
    5     4     5 1
    6     8     9 1
    7     5     6 1
    8     5     7 1
    9     5    10 1
   10     9    11 1
   11     9    12 1
   12     9    13 1
@<TRIPOS>SUBSTRUCTURE
      1 PS1               1 ****               0 ****  **** 
