@<TRIPOS>MOLECULE
modXNA-fragment:PSS:HEAD01:@P:HEAD01STRIP:@O3',C3,H31,H32,H33:TAIL01:@O5':TAIL01STRIP:@C5',H5'1,H5'2,H5'3
   13    12     1     0     0
SMALL
USER_CHARGES


@<TRIPOS>ATOM
      1 P          -0.0000   -0.2610   -0.0000 P          1 PSS      0.509332
      2 S1          1.5510   -1.2240   -0.7610 S          1 PSS     -0.616172
      3 S2         -1.5510   -1.2250    0.7600 S          1 PSS     -0.616172
      4 O5'        -0.4860    0.7900   -1.1470 OS         1 PSS     -0.354330
      5 C5'        -1.6020    1.6180   -0.9490 CT         1 PSS      0.166649
      6 H5'1       -1.5170    2.1820   -0.0270 H1         1 PSS      0.016396
      7 H5'2       -2.5140    1.0390   -0.9220 H1         1 PSS      0.016396
      8 O3'         0.4860    0.7890    1.1470 OS         1 PSS     -0.354330
      9 C3          1.6020    1.6170    0.9500 CT         1 PSS      0.166649
     10 H5'3       -1.6310    2.3070   -1.7860 H1         1 PSS      0.016396
     11 H31         1.6310    2.3060    1.7870 H1         1 PSS      0.016396
     12 H32         1.5190    2.1800    0.0280 H1         1 PSS      0.016396
     13 H33         2.5140    1.0360    0.9240 H1         1 PSS      0.016396
@<TRIPOS>BOND
    1     1     2 1
    2     1     3 1
    3     1     4 1
    4     1     8 1
    5     4     5 1
    6     8     9 1
    7     5     6 1
    8     5     7 1
    9     5    10 1
   10     9    11 1
   11     9    12 1
   12     9    13 1
@<TRIPOS>SUBSTRUCTURE
      1 PSS               1 ****               0 ****  **** 
