@<TRIPOS>MOLECULE
modXNA-fragment:VX1:HEAD01:@P:HEAD01STRIP:@O3',C3,H31,H32,H33:TAIL01:@O5':TAIL01STRIP:@C5',H5'1,H5'2,H5'3
   21    20     1     0     0
SMALL
USER_CHARGES


@<TRIPOS>ATOM
      1 P          -1.2080    0.3530   -0.0500 P          1 VX1      1.109457
      2 OP1        -0.9340    1.7040   -0.5040 O2         1 VX1     -0.674226
      3 C3          0.0610   -0.2910    1.0910 CT         1 VX1     -0.556526
      4 O5'        -1.3910   -0.6790   -1.2160 OS         1 VX1     -0.403083
      5 C5'        -1.7630   -2.0470   -1.0770 CT         1 VX1     -0.043282
      6 H5'1       -2.6130   -2.1430   -0.4150 H1         1 VX1      0.102141
      7 H5'2       -0.9250   -2.6190   -0.7100 H1         1 VX1      0.102141
      8 O3'        -2.4730    0.1870    0.8860 OS         1 VX1     -0.403083
      9 C3         -3.6420    0.9860    0.7010 CT         1 VX1     -0.043282
     10 H5'3       -2.0290   -2.3870   -2.0650 H1         1 VX1      0.102141
     11 H31        -4.2880    0.7750    1.5370 H1         1 VX1      0.102141
     12 H32        -4.1350    0.7150   -0.2230 H1         1 VX1      0.102141
     13 H33        -3.3770    2.0320    0.6820 H1         1 VX1      0.102141
     14 H7         -0.2800   -1.1810    1.6060 H1         1 VX1      0.188807
     15 H8          0.2320    0.4790    1.8320 H1         1 VX1      0.188807
     16 S9          1.6540   -0.7250    0.4020 SO         1 VX1      1.270484
     17 O9          2.6420   -0.3610    1.3670 O          1 VX1     -0.574132
     18 N9          1.8220    0.2250   -0.9520 N          1 VX1     -0.613022
     19 O13         1.5590   -2.0530   -0.0990 O          1 VX1     -0.574132
     20 N10         2.2020    1.3980   -0.6980 N          1 VX1      0.707607
     21 N11         2.5370    2.4280   -0.5900 N1         1 VX1     -0.193240
@<TRIPOS>BOND
    1     1     2 1
    2     1     3 1
    3     1     4 1
    4     1     8 1
    5     3    16 1
    6     4     5 1
    7     8     9 1
    8    16    17 1
    9    16    18 1
   10    16    19 1
   11    18    20 1
   12    20    21 1
   13     3    14 1
   14     3    15 1
   15     5     6 1
   16     5     7 1
   17     5    10 1
   18     9    11 1
   19     9    12 1
   20     9    13 1
@<TRIPOS>SUBSTRUCTURE
      1 VX1               1 ****               0 ****  **** 
