@<TRIPOS>MOLECULE
modXNA-fragment:WX1:HEAD01:@P:HEAD01STRIP:@O3',C3,H31,H32,H33:TAIL01:@O5':TAIL01STRIP:@C5',H5'1,H5'2,H5'3
   20    19     1     0     0
SMALL
USER_CHARGES


@<TRIPOS>ATOM
      1 P           1.0550   -0.0550   -0.6270 P          1 WX1      1.208378
      2 OP1         1.8750   -0.6330   -1.6900 O2         1 WX1     -0.763212
      3 N3         -0.4960    0.1460   -0.8930 S          1 WX1     -0.829880
      4 O5'         1.7220    1.3430   -0.1940 OS         1 WX1     -0.423868
      5 C5'         1.0810    2.2450    0.6750 CT         1 WX1     -0.000876
      6 H5'1        0.8420    1.7790    1.6220 H1         1 WX1      0.061301
      7 H5'2        0.1670    2.6180    0.2370 H1         1 WX1      0.061301
      8 O3'         1.1790   -0.9240    0.7350 OS         1 WX1     -0.423868
      9 C3          2.4380   -1.4030    1.1260 CT         1 WX1     -0.000876
     10 H5'3        1.7700    3.0650    0.8350 H1         1 WX1      0.061301
     11 H31         2.2990   -1.9600    2.0450 H1         1 WX1      0.061301
     12 H32         3.1250   -0.5850    1.3100 H1         1 WX1      0.061301
     13 H33         2.8580   -2.0490    0.3660 H1         1 WX1      0.061301
     14 S7         -1.7620    0.0490    0.0100 SO         1 WX1      1.289012
     15 C7         -2.0390   -1.6920    0.2590 CT         1 WX1     -0.397419
     16 5O13       -2.9170    0.5270   -0.7150 O          1 WX1     -0.684691
     17 6O13       -1.5860    0.6050    1.3390 O          1 WX1     -0.684691
     18 H7         -2.9380   -1.8070    0.8510 H1         1 WX1      0.114729
     19 H8         -1.1910   -2.1130    0.7780 H1         1 WX1      0.114729
     20 H9         -2.1660   -2.1640   -0.7060 H1         1 WX1      0.114729
@<TRIPOS>BOND
    1     1     2 1
    2     1     3 1
    3     1     4 1
    4     1     8 1
    5     3    14 1
    6     4     5 1
    7     8     9 1
    8    14    15 1
    9    14    16 1
   10    14    17 1
   11     5     6 1
   12     5     7 1
   13     5    10 1
   14     9    11 1
   15     9    12 1
   16     9    13 1
   17    15    18 1
   18    15    19 1
   19    15    20 1
@<TRIPOS>SUBSTRUCTURE
      1 WX1               1 ****               0 ****  **** 
