@<TRIPOS>MOLECULE
modXNA-fragment:WX2:HEAD01:@P:HEAD01STRIP:@O3',C3,H31,H32,H33:TAIL01:@O5':TAIL01STRIP:@C5',H5'1,H5'2,H5'3
   20    19     1     0     0
SMALL
USER_CHARGES


@<TRIPOS>ATOM
      1 P          -1.0670   -0.0410    0.6130 P          1 WX2      1.263930
      2 N2          0.5020    0.1720    0.7460 S          1 WX2     -0.838164
      3 OP2        -1.8090   -0.6410    1.7200 O2         1 WX2     -0.776882
      4 O5'        -1.3170   -0.8250   -0.7710 OS         1 WX2     -0.449119
      5 C5'        -2.5580   -1.4280   -1.0160 CT         1 WX2      0.048415
      6 H5'1       -3.3500   -0.6870   -1.0660 H1         1 WX2      0.048074
      7 H5'2       -2.7980   -2.1450   -0.2430 H1         1 WX2      0.048074
      8 O3'        -1.7240    1.3990    0.3040 OS         1 WX2     -0.449119
      9 C3         -1.1570    2.2550   -0.6540 CT         1 WX2      0.048415
     10 H5'3       -2.4840   -1.9310   -1.9720 H1         1 WX2      0.048074
     11 H31        -1.7780    3.1430   -0.6910 H1         1 WX2      0.048074
     12 H32        -1.1370    1.7910   -1.6330 H1         1 WX2      0.048074
     13 H33        -0.1460    2.5250   -0.3830 H1         1 WX2      0.048074
     14 S7          1.7100   -0.1760   -0.1750 SO         1 WX2      1.291043
     15 C7          3.0690    0.1920    0.9080 CT         1 WX2     -0.380821
     16 3O13        1.8510    0.7300   -1.3020 O          1 WX2     -0.685974
     17 4O13        1.8350   -1.5810   -0.5010 O          1 WX2     -0.685974
     18 H7          3.9840   -0.0010    0.3640 H1         1 WX2      0.108601
     19 H8          3.0070   -0.4460    1.7780 H1         1 WX2      0.108601
     20 H9          3.0190    1.2310    1.2010 H1         1 WX2      0.108601
@<TRIPOS>BOND
    1     1     2 1
    2     1     3 1
    3     1     4 1
    4     1     8 1
    5     2    14 1
    6     4     5 1
    7     8     9 1
    8    14    15 1
    9    14    16 1
   10    14    17 1
   11     5     6 1
   12     5     7 1
   13     5    10 1
   14     9    11 1
   15     9    12 1
   16     9    13 1
   17    15    18 1
   18    15    19 1
   19    15    20 1
@<TRIPOS>SUBSTRUCTURE
      1 WX2               1 ****               0 ****  **** 
