@<TRIPOS>MOLECULE
modXNA-fragment:XV1:HEAD01:@P:HEAD01STRIP:@O3',C3,H31,H32,H33:TAIL01:@O5':TAIL01STRIP:@C5',H5'1,H5'2,H5'3
   24    23     1     0     0
SMALL
USER_CHARGES


@<TRIPOS>ATOM
      1 P           1.2190   -0.2880   -0.2400 P          1 XV1      0.942071
      2 OP1         0.9670   -1.5080   -0.9860 O2         1 XV1     -0.646001
      3 C3         -0.0390    0.0470    1.0540 CT         1 XV1     -0.176286
      4 O5'         1.3630    0.9860   -1.1430 OS         1 XV1     -0.384792
      5 C5'         1.8050    2.2760   -0.7330 CT         1 XV1      0.029006
      6 H5'1        2.6850    2.1940   -0.1100 H1         1 XV1      0.080298
      7 H5'2        1.0110    2.7860   -0.2100 H1         1 XV1      0.080298
      8 O3'         2.5100   -0.3090    0.6800 OS         1 XV1     -0.384792
      9 C3          3.6800   -1.0290    0.2940 CT         1 XV1      0.029006
     10 H5'3        2.0460    2.8100   -1.6370 H1         1 XV1      0.080298
     11 H31         4.3520   -0.9890    1.1360 H1         1 XV1      0.080298
     12 H32         4.1410   -0.5590   -0.5650 H1         1 XV1      0.080298
     13 H33         3.4270   -2.0510    0.0600 H1         1 XV1      0.080298
     14 H7          0.3250    0.8490    1.6860 H1         1 XV1      0.131702
     15 C15        -0.2590   -1.2150    1.9040 CT         1 XV1     -0.379253
     16 S9         -1.5900    0.7230    0.4220 SO         1 XV1      1.186559
     17 O9         -2.6570    0.2270    1.2330 O          1 XV1     -0.563617
     18 N9         -1.7550    0.1180   -1.1220 N          1 XV1     -0.627025
     19 O13        -1.3930    2.1220    0.2430 O          1 XV1     -0.563617
     20 N10        -2.2790   -1.0230   -1.1630 N          1 XV1      0.735380
     21 N11        -2.7340   -2.0010   -1.3120 N1         1 XV1     -0.212695
     22 H8         -0.9780   -1.0210    2.6860 HC         1 XV1      0.134189
     23 H9          0.6830   -1.4990    2.3550 HC         1 XV1      0.134189
     24 H10        -0.6080   -2.0440    1.3030 HC         1 XV1      0.134189
@<TRIPOS>BOND
    1     1     2 1
    2     1     3 1
    3     1     4 1
    4     1     8 1
    5     3    15 1
    6     3    16 1
    7     4     5 1
    8     8     9 1
    9    16    17 1
   10    16    18 1
   11    16    19 1
   12    18    20 1
   13    20    21 1
   14     3    14 1
   15     5     6 1
   16     5     7 1
   17     5    10 1
   18     9    11 1
   19     9    12 1
   20     9    13 1
   21    15    22 1
   22    15    23 1
   23    15    24 1
@<TRIPOS>SUBSTRUCTURE
      1 XV1               1 ****               0 ****  **** 
