@<TRIPOS>MOLECULE
modXNA-fragment:XV2:HEAD01:@P:HEAD01STRIP:@O3',C3,H31,H32,H33:TAIL01:@O5':TAIL01STRIP:@C5',H5'1,H5'2,H5'3
   24    23     1     0     0
SMALL
USER_CHARGES


@<TRIPOS>ATOM
      1 P           1.5190   -0.0060   -0.1000 P          1 XV2      1.050745
      2 C2         -0.0490    0.8240    0.3790 CT         1 XV2     -0.276016
      3 OP2         1.8640    0.0650   -1.5090 O2         1 XV2     -0.637187
      4 O5'         1.4500   -1.4590    0.5020 OS         1 XV2     -0.426338
      5 C5'         1.3620   -2.6550   -0.2770 CT         1 XV2      0.019940
      6 H5'1        1.6420   -2.4590   -1.3000 H1         1 XV2      0.083788
      7 H5'2        0.3500   -3.0190   -0.2310 H1         1 XV2      0.083788
      8 O3'         2.4740    0.7430    0.9070 OS         1 XV2     -0.426338
      9 C3          3.8810    0.5200    0.8900 CT         1 XV2      0.019940
     10 H5'3        2.0430   -3.3650    0.1680 H1         1 XV2      0.083788
     11 H31         4.3100    1.2190    1.5900 H1         1 XV2      0.083788
     12 H32         4.2730    0.6970   -0.1010 H1         1 XV2      0.083788
     13 H33         4.0970   -0.4920    1.2040 H1         1 XV2      0.083788
     14 H7         -0.2530    0.5240    1.4000 H1         1 XV2      0.134290
     15 S8         -1.4450    0.2150   -0.5710 SO         1 XV2      1.040400
     16 C16         0.0410    2.3540    0.2720 CT         1 XV2     -0.281458
     17 N9         -2.7290    0.7270    0.3970 N          1 XV2     -0.589699
     18 O10        -1.4340   -1.2170   -0.5540 O          1 XV2     -0.498908
     19 O11        -1.5470    0.9340   -1.7900 O          1 XV2     -0.498908
     20 N10        -3.3480   -0.2240    0.9220 N          1 XV2      0.709353
     21 N11        -3.9500   -0.9890    1.4140 N1         1 XV2     -0.230713
     22 H8         -0.9020    2.8090    0.5480 HC         1 XV2      0.129389
     23 H9          0.2870    2.6520   -0.7380 HC         1 XV2      0.129389
     24 H10         0.8060    2.7110    0.9460 HC         1 XV2      0.129389
@<TRIPOS>BOND
    1     1     2 1
    2     1     3 1
    3     1     4 1
    4     1     8 1
    5     2    15 1
    6     2    16 1
    7     4     5 1
    8     8     9 1
    9    15    17 1
   10    15    18 1
   11    15    19 1
   12    17    20 1
   13    20    21 1
   14     2    14 1
   15     5     6 1
   16     5     7 1
   17     5    10 1
   18     9    11 1
   19     9    12 1
   20     9    13 1
   21    16    22 1
   22    16    23 1
   23    16    24 1
@<TRIPOS>SUBSTRUCTURE
      1 XV2               1 ****               0 ****  **** 
