@<TRIPOS>MOLECULE
modXNA-fragment:ZV1:HEAD01:@P:HEAD01STRIP:@O3',C3,H31,H32,H33:TAIL01:@O5':TAIL01STRIP:@C5',H5'1,H5'2,H5'3
   23    22     1     0     0
SMALL
USER_CHARGES


@<TRIPOS>ATOM
      1 P           1.1540   -0.3080   -0.2860 P          1 ZV1      1.178274
      2 OP1         1.0160   -1.5630   -0.9990 O2         1 ZV1     -0.688825
      3 N3         -0.0850   -0.0060    0.8390 NT         1 ZV1     -0.373141
      4 O5'         1.1850    0.9520   -1.1990 OS         1 ZV1     -0.417526
      5 C5'         1.6330    2.2500   -0.8050 CT         1 ZV1     -0.013451
      6 H5'1        2.7050    2.3010   -0.9350 H1         1 ZV1      0.094599
      7 H5'2        1.3670    2.4590    0.2180 H1         1 ZV1      0.094599
      8 O3'         2.4170   -0.2180    0.6560 OS         1 ZV1     -0.417526
      9 C3          3.5900   -0.9880    0.3950 CT         1 ZV1     -0.013451
     10 H5'3        1.1390    2.9500   -1.4570 H1         1 ZV1      0.094599
     11 H31         4.2330   -0.8530    1.2500 H1         1 ZV1      0.094599
     12 H32         4.0830   -0.6250   -0.4960 H1         1 ZV1      0.094599
     13 H33         3.3340   -2.0290    0.2720 H1         1 ZV1      0.094599
     14 C15        -0.1170   -0.8400    2.0640 CT         1 ZV1     -0.386631
     15 S9         -1.5080    0.7140    0.3810 SO         1 ZV1      1.223924
     16 O9         -2.4800    0.2950    1.3340 O          1 ZV1     -0.537684
     17 N9         -1.8590    0.0610   -1.1080 N          1 ZV1     -0.605939
     18 O13        -1.2890    2.0850    0.1100 O          1 ZV1     -0.537684
     19 N10        -2.2270   -1.1430   -1.0430 N          1 ZV1      0.697384
     20 N11        -2.5630   -2.1760   -1.1000 N1         1 ZV1     -0.190737
     21 H8         -0.6520   -0.3170    2.8370 H1         1 ZV1      0.171807
     22 H9          0.9020   -0.9880    2.3790 H1         1 ZV1      0.171807
     23 H10        -0.5870   -1.7970    1.8810 H1         1 ZV1      0.171807
@<TRIPOS>BOND
    1     1     2 1
    2     1     3 1
    3     1     4 1
    4     1     8 1
    5     3    14 1
    6     3    15 1
    7     4     5 1
    8     8     9 1
    9    15    16 1
   10    15    17 1
   11    15    18 1
   12    17    19 1
   13    19    20 1
   14     5     6 1
   15     5     7 1
   16     5    10 1
   17     9    11 1
   18     9    12 1
   19     9    13 1
   20    14    21 1
   21    14    22 1
   22    14    23 1
@<TRIPOS>SUBSTRUCTURE
      1 ZV1               1 ****               0 ****  **** 
