@<TRIPOS>MOLECULE
modXNA-fragment:ZV2:HEAD01:@P:HEAD01STRIP:@O3',C3,H31,H32,H33:TAIL01:@O5':TAIL01STRIP:@C5',H5'1,H5'2,H5'3
   23    22     1     0     0
SMALL
USER_CHARGES


@<TRIPOS>ATOM
      1 P           1.4680    0.0710    0.3290 P          1 ZV2      1.032640
      2 N2          0.2580   -1.0940    0.0520 NT         1 ZV2     -0.246720
      3 OP2         2.2560   -0.1460    1.5200 O2         1 ZV2     -0.655158
      4 O5'         0.6690    1.4220    0.2400 OS         1 ZV2     -0.379334
      5 C5'         0.6310    2.3470    1.3380 CT         1 ZV2     -0.001489
      6 H5'1        1.6320    2.5490    1.6830 H1         1 ZV2      0.084595
      7 H5'2        0.0310    1.9360    2.1330 H1         1 ZV2      0.084595
      8 O3'         2.3180    0.0080   -0.9890 OS         1 ZV2     -0.379334
      9 C3          1.8210    0.3190   -2.2830 CT         1 ZV2     -0.001489
     10 H5'3        0.1780    3.2450    0.9490 H1         1 ZV2      0.084595
     11 H31         2.6210    0.1010   -2.9740 H1         1 ZV2      0.084595
     12 H32         1.5630    1.3660   -2.3380 H1         1 ZV2      0.084595
     13 H33         0.9570   -0.2870   -2.5150 H1         1 ZV2      0.084595
     14 S8         -1.3450   -0.8230    0.2610 SO         1 ZV2      1.173747
     15 C16         0.7090   -2.5040   -0.0290 CT         1 ZV2     -0.302788
     16 N9         -1.7530    0.0550   -1.1090 N          1 ZV2     -0.628151
     17 O10        -1.5800    0.0070    1.3960 O          1 ZV2     -0.535853
     18 O11        -1.9810   -2.0820    0.1360 O          1 ZV2     -0.535853
     19 N10        -2.1130    1.2240   -0.8510 N          1 ZV2      0.716281
     20 N11        -2.4470    2.2540   -0.7280 N1         1 ZV2     -0.224701
     21 H8          0.1360   -3.0260   -0.7770 H1         1 ZV2      0.153544
     22 H9          0.6060   -2.9970    0.9260 H1         1 ZV2      0.153544
     23 H10         1.7490   -2.4960   -0.3160 H1         1 ZV2      0.153544
@<TRIPOS>BOND
    1     1     2 1
    2     1     3 1
    3     1     4 1
    4     1     8 1
    5     2    14 1
    6     2    15 1
    7     4     5 1
    8     8     9 1
    9    14    16 1
   10    14    17 1
   11    14    18 1
   12    16    19 1
   13    19    20 1
   14     5     6 1
   15     5     7 1
   16     5    10 1
   17     9    11 1
   18     9    12 1
   19     9    13 1
   20    15    21 1
   21    15    22 1
   22    15    23 1
@<TRIPOS>SUBSTRUCTURE
      1 ZV2               1 ****               0 ****  **** 
