@<TRIPOS>MOLECULE
modXNA-fragment:1DP:HEAD01:@N9:HEAD01STRIP:@C1',H1',O4',HHO4,C2',H2'1,H2'3,H2'2
   22    23     1     0     0
SMALL
USER_CHARGES


@<TRIPOS>ATOM
      1 O4'        -3.2050   -0.6660    0.7870 OH         1 1DP     -0.756040
      2 C1'        -2.3880    0.3160    0.2210 CT         1 1DP      0.363359
      3 H1'        -2.2920    1.1660    0.8850 H2         1 1DP      0.019654
      4 N9         -1.0730   -0.2760    0.1230 N*         1 1DP     -0.093394
      5 C8         -0.7510   -1.5950   -0.0320 CK         1 1DP      0.156732
      6 H8         -1.5110   -2.3470   -0.0500 H5         1 1DP      0.164832
      7 N7          0.5150   -1.8210   -0.1250 NB         1 1DP     -0.616495
      8 C5          1.0990   -0.5780   -0.0350 CC         1 1DP      0.206063
      9 C6          2.4480   -0.1980   -0.0650 CM         1 1DP      0.161115
     10 N6          3.4690   -1.1000   -0.2690 NT         1 1DP     -0.854681
     11 H61         4.3540   -0.8430    0.1110 H          1 1DP      0.389009
     12 H62         3.2230   -2.0480   -0.0820 H          1 1DP      0.389009
     13 C1          2.6130    1.1760    0.0780 CZ         1 1DP     -0.076412
     14 C2          1.5770    2.0870    0.2260 CM         1 1DP      0.009989
     15 H2          1.7760    3.1370    0.3280 HA         1 1DP      0.147883
     16 N3          0.2920    1.7110    0.2480 DU         1 1DP     -0.490052
     17 C4          0.1210    0.4100    0.1230 CK         1 1DP      0.175308
     18 C2'        -2.9060    0.7750   -1.1340 CT         1 1DP     -0.360482
     19 H2'1       -2.9930   -0.0700   -1.8080 HC         1 1DP      0.128414
     20 HHO4       -4.1050   -0.3720    0.7800 HO         1 1DP      0.478623
     21 H2'2       -3.8820    1.2400   -1.0290 HC         1 1DP      0.128414
     22 H2'3       -2.2310    1.5050   -1.5650 HC         1 1DP      0.128414
@<TRIPOS>BOND
    1     1     2 1
    2     2     4 1
    3     2    18 1
    4     4     5 1
    5     4    17 1
    6     5     7 1
    7     7     8 1
    8     8     9 1
    9     8    17 1
   10     9    10 1
   11     9    13 1
   12    13    14 1
   13    14    16 1
   14    16    17 1
   15     1    20 1
   16     2     3 1
   17     5     6 1
   18    10    11 1
   19    10    12 1
   20    14    15 1
   21    18    19 1
   22    18    21 1
   23    18    22 1
@<TRIPOS>SUBSTRUCTURE
      1 1DP               1 ****               0 ****  **** 
