@<TRIPOS>MOLECULE
modXNA-fragment:1NE:HEAD01:@N9:HEAD01STRIP:@C1',H1',O4',HHO4,C2',H2'1,H2'3,H2'2
   25    27     1     0     0
SMALL
USER_CHARGES


@<TRIPOS>ATOM
      1 O4'         3.8630   -0.3390    0.9370 OH         1 1NE     -0.744734
      2 C1'         2.8160   -0.8630    0.1780 CT         1 1NE      0.300243
      3 H1'         2.3530   -1.7000    0.6860 H2         1 1NE      0.062041
      4 N9          1.8140    0.1780    0.1140 N*         1 1NE      0.058000
      5 C8          2.0160    1.5390    0.0180 CK         1 1NE      0.092500
      6 H8          3.0030    1.9490    0.0370 H5         1 1NE      0.172370
      7 N7          0.9300    2.2050   -0.0640 NB         1 1NE     -0.539426
      8 C5         -0.0710    1.2580   -0.0270 CB         1 1NE      0.015447
      9 C6         -1.4910    1.4310   -0.0830 C          1 1NE      0.422903
     10 O6         -2.1740    2.4060   -0.1770 O          1 1NE     -0.546683
     11 N1         -2.1090    0.1500   -0.0080 N*         1 1NE     -0.066415
     12 C12        -3.4860   -0.0960   -0.0300 CA         1 1NE     -0.173427
     13 C2         -1.4430   -1.0330    0.0950 CB         1 1NE      0.469345
     14 N2         -2.3870   -1.9930    0.1350 NA         1 1NE     -0.383285
     15 C15        -3.6510   -1.4110    0.0590 CW         1 1NE     -0.130093
     16 H2         -2.1730   -2.9600    0.2170 H          1 1NE      0.367689
     17 N3         -0.1590   -1.1980    0.1430 NC         1 1NE     -0.749588
     18 C4          0.4710   -0.0040    0.0830 CB         1 1NE      0.172101
     19 C2'         3.2770   -1.2880   -1.2090 CT         1 1NE     -0.351039
     20 H2'1        3.7220   -0.4480   -1.7310 HC         1 1NE      0.126186
     21 HHO4        4.5990   -0.9350    0.9210 HO         1 1NE      0.476446
     22 H2'2        4.0150   -2.0830   -1.1360 HC         1 1NE      0.126186
     23 H2'3        2.4390   -1.6590   -1.7860 HC         1 1NE      0.126186
     24 H15        -4.5410   -2.0000    0.0750 H4         1 1NE      0.224412
     25 H12        -4.1800    0.7080   -0.1070 H4         1 1NE      0.235299
@<TRIPOS>BOND
    1     1     2 1
    2     2     4 1
    3     2    19 1
    4     4     5 1
    5     4    18 1
    6     5     7 1
    7     7     8 1
    8     8     9 1
    9     8    18 1
   10     9    10 1
   11     9    11 1
   12    11    12 1
   13    11    13 1
   14    12    15 1
   15    13    14 1
   16    13    17 1
   17    14    15 1
   18    17    18 1
   19     1    21 1
   20     2     3 1
   21     5     6 1
   22    12    25 1
   23    14    16 1
   24    15    24 1
   25    19    20 1
   26    19    22 1
   27    19    23 1
@<TRIPOS>SUBSTRUCTURE
      1 1NE               1 ****               0 ****  **** 
