@<TRIPOS>MOLECULE
modXNA-fragment:1RN:HEAD01:@N1:HEAD01STRIP:@C1',H1',O4',HHO4,C2',H2'1,H2'3,H2'2
   28    28     1     0     0
SMALL
USER_CHARGES


@<TRIPOS>ATOM
      1 O4'         1.3150    2.7100    0.6930 OH         1 1RN     -0.658740
      2 C1'         2.2290    1.9140    0.0270 CT         1 1RN      0.351399
      3 H1'         3.1840    1.9080    0.5190 H2         1 1RN     -0.005823
      4 N1          1.7490    0.4980    0.0560 N*         1 1RN      0.223944
      5 C6          0.4090    0.2850   -0.1370 CM         1 1RN     -0.041803
      6 H6         -0.1780    1.1720   -0.2490 H4         1 1RN      0.144186
      7 C5         -0.1610   -0.9260   -0.1700 CM         1 1RN     -0.245746
      8 C8         -1.6050   -1.1260   -0.3700 CM         1 1RN      0.252194
      9 C4          0.6950   -2.0930   -0.0060 C          1 1RN      0.503578
     10 O4          0.3440   -3.2340   -0.0160 O          1 1RN     -0.579662
     11 N3          2.0350   -1.7700    0.1730 NA         1 1RN     -0.143614
     12 H3          2.6560   -2.5450    0.2800 H          1 1RN      0.257717
     13 C2          2.6120   -0.5470    0.2000 C          1 1RN     -0.104402
     14 S2          4.2640   -0.4050    0.3920 S          1 1RN     -0.339252
     15 C2'         2.3590    2.4100   -1.3980 CT         1 1RN     -0.238239
     16 H2'1        1.3960    2.4060   -1.8960 HC         1 1RN      0.099850
     17 HHO4        1.4300    2.6320    1.6320 HO         1 1RN      0.419571
     18 H2'2        2.7310    3.4270   -1.3850 HC         1 1RN      0.099850
     19 H2'3        3.0500    1.7880   -1.9510 HC         1 1RN      0.099850
     20 N8         -2.4170   -0.1720   -0.4320 N2         1 1RN     -0.420103
     21 H8         -1.9120   -2.1590   -0.4630 HA         1 1RN      0.103885
     22 C9         -3.8140   -0.4600   -0.6560 CT         1 1RN     -0.138227
     23 H91        -4.0630   -0.2250   -1.6870 H1         1 1RN      0.106131
     24 C10        -4.7180    0.4130    0.2060 C          1 1RN      0.643582
     25 H92        -4.0840   -1.4960   -0.4810 H1         1 1RN      0.106131
     26 O11        -5.8620    0.1600    0.3620 O          1 1RN     -0.591528
     27 O12        -4.1490    1.4860    0.7290 OH         1 1RN     -0.611377
     28 2HO1       -3.2220    1.4970    0.5100 HO         1 1RN      0.396436
@<TRIPOS>BOND
    1     1     2 1
    2     2     4 1
    3     2    15 1
    4     4     5 1
    5     4    13 1
    6     5     7 1
    7     7     8 1
    8     7     9 1
    9     8    20 1
   10     9    10 1
   11     9    11 1
   12    11    13 1
   13    13    14 1
   14    20    22 1
   15    22    24 1
   16    24    26 1
   17    24    27 1
   18     1    17 1
   19     2     3 1
   20     5     6 1
   21     8    21 1
   22    11    12 1
   23    15    16 1
   24    15    18 1
   25    15    19 1
   26    22    23 1
   27    22    25 1
   28    27    28 1
@<TRIPOS>SUBSTRUCTURE
      1 1RN               1 ****               0 ****  **** 
