@<TRIPOS>MOLECULE
modXNA-fragment:2MG:HEAD01:@N9:HEAD01STRIP:@C1',H1',O4',HHO4,C2',H2'1,H2'3,H2'2
   29    30     1     0     0
SMALL
USER_CHARGES


@<TRIPOS>ATOM
      1 O4'         3.6810   -0.9560    0.9740 OH         1 2MG     -0.741087
      2 C1'         2.5710   -1.1760    0.1560 CT         1 2MG      0.325611
      3 H1'         1.9010   -1.8980    0.6020 H2         1 2MG      0.043899
      4 N9          1.8510    0.0780    0.1190 N*         1 2MG     -0.003512
      5 C8          2.3780    1.3510    0.0880 CK         1 2MG      0.128236
      6 H8          3.4330    1.5110    0.1460 H5         1 2MG      0.163504
      7 N7          1.4860    2.2640    0.0130 NB         1 2MG     -0.579058
      8 C5          0.2900    1.5820   -0.0120 CB         1 2MG      0.057804
      9 C6         -1.0610    2.0520   -0.0870 C          1 2MG      0.533576
     10 O6         -1.5100    3.1570   -0.1510 O          1 2MG     -0.587922
     11 N1         -1.9560    0.9540   -0.0780 NA         1 2MG     -0.567299
     12 H1         -2.9080    1.2340   -0.1440 H          1 2MG      0.394921
     13 C2         -1.6260   -0.3670   -0.0220 CA         1 2MG      0.584464
     14 N2         -2.6410   -1.2660   -0.0580 N2         1 2MG     -0.227707
     15 C15        -4.0170   -0.8510    0.1400 CT         1 2MG     -0.177402
     16 C16        -2.3140   -2.6720    0.1270 CT         1 2MG     -0.177402
     17 N3         -0.3980   -0.7760    0.0520 NC         1 2MG     -0.663875
     18 C4          0.5050    0.2320    0.0520 CB         1 2MG      0.148811
     19 C2'         2.9770   -1.6340   -1.2380 CT         1 2MG     -0.361794
     20 H2'1        3.6320   -0.9040   -1.6990 HC         1 2MG      0.128124
     21 HHO4        4.2530   -1.7100    0.9450 HO         1 2MG      0.470948
     22 H2'2        3.4990   -2.5860   -1.1870 HC         1 2MG      0.128124
     23 H2'3        2.1000   -1.7650   -1.8600 HC         1 2MG      0.128124
     24 1H16       -3.1480   -3.2660   -0.2200 H1         1 2MG      0.115787
     25 2H16       -2.1180   -2.9100    1.1680 H1         1 2MG      0.115787
     26 3H16       -1.4410   -2.9230   -0.4520 H1         1 2MG      0.115787
     27 1H15       -4.6460   -1.7280    0.1240 H1         1 2MG      0.115787
     28 2H15       -4.3560   -0.2020   -0.6610 H1         1 2MG      0.115787
     29 3H15       -4.1670   -0.3480    1.0910 H1         1 2MG      0.115787
@<TRIPOS>BOND
    1     1     2 1
    2     2     4 1
    3     2    19 1
    4     4     5 1
    5     4    18 1
    6     5     7 1
    7     7     8 1
    8     8     9 1
    9     8    18 1
   10     9    10 1
   11     9    11 1
   12    11    13 1
   13    13    14 1
   14    13    17 1
   15    14    15 1
   16    14    16 1
   17    17    18 1
   18     1    21 1
   19     2     3 1
   20     5     6 1
   21    11    12 1
   22    15    27 1
   23    15    28 1
   24    15    29 1
   25    16    24 1
   26    16    25 1
   27    16    26 1
   28    19    20 1
   29    19    22 1
   30    19    23 1
@<TRIPOS>SUBSTRUCTURE
      1 2MG               1 ****               0 ****  **** 
