@<TRIPOS>MOLECULE
modXNA-fragment:2NE:HEAD01:@N9:HEAD01STRIP:@C1',H1',O4',HHO4,C2',H2'1,H2'3,H2'2
   25    27     1     0     0
SMALL
USER_CHARGES


@<TRIPOS>ATOM
      1 O4'        -2.5540    1.1760    1.0390 OH         1 2NE     -0.605818
      2 C1'        -2.5000    0.5130   -0.1890 CT         1 2NE      0.276222
      3 H1'        -2.2070    1.2040   -0.9710 H2         1 2NE      0.052315
      4 N9         -1.4470   -0.4740   -0.0840 N*         1 2NE     -0.021609
      5 C8         -1.5710   -1.8480   -0.0020 CK         1 2NE      0.173155
      6 H8         -2.5280   -2.3230   -0.0090 H5         1 2NE      0.140433
      7 N7         -0.4520   -2.4550    0.0690 NB         1 2NE     -0.577027
      8 C5          0.4970   -1.4630    0.0500 CB         1 2NE      0.129189
      9 C6          1.9490   -1.6030    0.0610 C          1 2NE      0.539821
     10 O6          2.5800   -2.6130    0.1240 O          1 2NE     -0.569138
     11 N1          2.5780   -0.3660   -0.0290 NA         1 2NE     -0.602772
     12 H1          3.5760   -0.3680   -0.0250 H          1 2NE      0.440753
     13 C2          1.9630    0.8550   -0.0730 CB         1 2NE      0.498412
     14 N2          2.5320    2.0060   -0.1110 NB         1 2NE     -0.658486
     15 N3          0.6010    0.9260   -0.0680 N*         1 2NE      0.206688
     16 C4         -0.1070   -0.2510   -0.0300 CB         1 2NE     -0.083306
     17 C2'        -3.8400   -0.1040   -0.5560 CT         1 2NE     -0.357005
     18 H2'1       -4.1990   -0.7500    0.2360 HC         1 2NE      0.136241
     19 HHO4       -3.2320    1.8390    1.0230 HO         1 2NE      0.414522
     20 H2'2       -4.5640    0.6930   -0.6900 HC         1 2NE      0.136241
     21 H2'3       -3.7820   -0.6600   -1.4840 HC         1 2NE      0.136241
     22 C22         1.4900    2.9070   -0.1180 CV         1 2NE      0.143603
     23 C23         0.2970    2.2930   -0.0870 CA         1 2NE     -0.441359
     24 H22         1.6770    3.9600   -0.1360 H4         1 2NE      0.140086
     25 H23        -0.7000    2.6580   -0.0270 H4         1 2NE      0.265453
@<TRIPOS>BOND
    1     1     2 1
    2     2     4 1
    3     2    17 1
    4     4     5 1
    5     4    16 1
    6     5     7 1
    7     7     8 1
    8     8     9 1
    9     8    16 1
   10     9    10 1
   11     9    11 1
   12    11    13 1
   13    13    14 1
   14    13    15 1
   15    14    22 1
   16    15    16 1
   17    15    23 1
   18    22    23 1
   19     1    19 1
   20     2     3 1
   21     5     6 1
   22    11    12 1
   23    17    18 1
   24    17    20 1
   25    17    21 1
   26    22    24 1
   27    23    25 1
@<TRIPOS>SUBSTRUCTURE
      1 2NE               1 ****               0 ****  **** 
