@<TRIPOS>MOLECULE
modXNA-fragment:5BU:HEAD01:@N1:HEAD01STRIP:@C1',H1',O4',HHO4,C2',H2'1,H2'3,H2'2
   19    19     1     0     0
SMALL
USER_CHARGES


@<TRIPOS>ATOM
      1 O4'        -2.3750   -1.9490    0.9200 OH         1 5BU     -0.723577
      2 C1'        -2.6870   -0.8000    0.1940 CT         1 5BU      0.277861
      3 H1'        -3.4070   -0.1950    0.7210 H2         1 5BU      0.064572
      4 N1         -1.4520   -0.0100    0.1510 N*         1 5BU     -0.187086
      5 C6         -0.2240   -0.6240    0.0880 CM         1 5BU      0.158871
      6 H6         -0.2510   -1.6930    0.1170 H4         1 5BU      0.174616
      7 C5          0.9200    0.0500    0.0160 CM         1 5BU     -0.394435
      8 BR8         2.5770   -0.8310   -0.0600 Br         1 5BU     -0.008554
      9 C4          0.9100    1.5140    0.0050 C          1 5BU      0.750815
     10 O4          1.8550    2.2330   -0.0500 O          1 5BU     -0.607948
     11 N3         -0.3770    2.0320    0.0650 NA         1 5BU     -0.770142
     12 H3         -0.4500    3.0280    0.0480 H          1 5BU      0.396871
     13 C2         -1.5680    1.3610    0.1200 C          1 5BU      0.603043
     14 O2         -2.6230    1.9260    0.1330 O          1 5BU     -0.607858
     15 C2'        -3.1910   -1.1250   -1.2030 CT         1 5BU     -0.283556
     16 H2'1       -2.4560   -1.7080   -1.7480 HC         1 5BU      0.108891
     17 HHO4       -3.1420   -2.5010    0.9890 HO         1 5BU      0.478490
     18 H2'2       -4.1110   -1.6990   -1.1450 HC         1 5BU      0.108891
     19 H2'3       -3.4000   -0.2130   -1.7490 HC         1 5BU      0.108891
@<TRIPOS>BOND
    1     1     2 1
    2     2     4 1
    3     2    15 1
    4     4     5 1
    5     4    13 1
    6     5     7 1
    7     7     8 1
    8     7     9 1
    9     9    10 1
   10     9    11 1
   11    11    13 1
   12    13    14 1
   13     1    17 1
   14     2     3 1
   15     5     6 1
   16    11    12 1
   17    15    16 1
   18    15    18 1
   19    15    19 1
@<TRIPOS>SUBSTRUCTURE
      1 5BU               1 ****               0 ****  **** 
