@<TRIPOS>MOLECULE
modXNA-fragment:5CU:HEAD01:@N1:HEAD01STRIP:@C1',H1',O4',HHO4,C2',H2'1,H2'3,H2'2
   23    23     1     0     0
SMALL
USER_CHARGES


@<TRIPOS>ATOM
      1 O4'        -1.7840   -1.9840    1.0340 OH         1 5CU     -0.718631
      2 C1'        -2.1890   -0.9470    0.1940 CT         1 5CU      0.280692
      3 H1'        -3.0020   -0.3920    0.6320 H2         1 5CU      0.071244
      4 N1         -1.0550   -0.0210    0.1350 N*         1 5CU     -0.092115
      5 C6          0.2350   -0.4990    0.0940 CM         1 5CU     -0.074805
      6 H6          0.3120   -1.5660    0.1420 H4         1 5CU      0.250553
      7 C5          1.3070    0.2880    0.0190 CM         1 5CU     -0.132548
      8 C8          2.7430   -0.1790   -0.0190 CT         1 5CU     -0.184150
      9 C4          1.1120    1.7360   -0.0130 C          1 5CU      0.587596
     10 O4          1.9930    2.5430   -0.0690 O          1 5CU     -0.593170
     11 N3         -0.2130    2.1260    0.0230 NA         1 5CU     -0.698578
     12 H3         -0.3940    3.1080   -0.0120 H          1 5CU      0.401955
     13 C2         -1.3250    1.3260    0.0780 C          1 5CU      0.551084
     14 O2         -2.4330    1.7760    0.0680 O          1 5CU     -0.601208
     15 C2'        -2.5770   -1.4460   -1.1900 CT         1 5CU     -0.327371
     16 H2'1       -1.7530   -1.9800   -1.6510 HC         1 5CU      0.123138
     17 HHO4       -2.4340   -2.6730    1.0330 HO         1 5CU      0.475086
     18 H2'2       -3.4260   -2.1200   -1.1210 HC         1 5CU      0.123138
     19 H2'3       -2.8610   -0.6140   -1.8220 HC         1 5CU      0.123138
     20 C8          2.8690   -1.6430   -0.0870 CZ         1 5CU      0.309330
     21 N10         2.9500   -2.7730   -0.1430 N1         1 5CU     -0.496680
     22 H81         3.2470    0.2480   -0.8780 HC         1 5CU      0.151705
     23 H82         3.2780    0.1720    0.8560 HC         1 5CU      0.151705
@<TRIPOS>BOND
    1     1     2 1
    2     2     4 1
    3     2    15 1
    4     4     5 1
    5     4    13 1
    6     5     7 1
    7     7     8 1
    8     7     9 1
    9     8    20 1
   10     9    10 1
   11     9    11 1
   12    11    13 1
   13    13    14 1
   14    20    21 1
   15     1    17 1
   16     2     3 1
   17     5     6 1
   18     8    22 1
   19     8    23 1
   20    11    12 1
   21    15    16 1
   22    15    18 1
   23    15    19 1
@<TRIPOS>SUBSTRUCTURE
      1 5CU               1 ****               0 ****  **** 
