@<TRIPOS>MOLECULE
modXNA-fragment:5FC:HEAD01:@N1:HEAD01STRIP:@C1',H1',O4',HHO4,C2',H2'1,H2'3,H2'2
   20    20     1     0     0
SMALL
USER_CHARGES


@<TRIPOS>ATOM
      1 O4'        -2.4200   -1.3990    0.7660 OH         1 5FC     -0.747758
      2 C1'        -2.1830   -0.1290    0.2280 CT         1 5FC      0.381039
      3 H1'        -2.5230    0.6410    0.9020 H2         1 5FC      0.034547
      4 N1         -0.7290    0.0120    0.1510 N*         1 5FC     -0.297385
      5 C6          0.0750   -1.0770    0.0200 CM         1 5FC     -0.029119
      6 H6         -0.3910   -2.0390    0.0080 H4         1 5FC      0.251853
      7 C5          1.3900   -0.9140   -0.0690 CM         1 5FC     -0.057153
      8 F5          2.2380   -1.9430   -0.1900 F          1 5FC     -0.179227
      9 C4          1.9230    0.4160   -0.0110 CA         1 5FC      0.650441
     10 N4          3.2490    0.5780   -0.0850 N2         1 5FC     -1.032590
     11 H41         3.6200    1.4970   -0.0090 H          1 5FC      0.453461
     12 H42         3.8630   -0.2000   -0.1290 H          1 5FC      0.453461
     13 N3          1.1530    1.4490    0.1060 NC         1 5FC     -0.822607
     14 C2         -0.2020    1.3130    0.1710 C          1 5FC      0.684271
     15 O2         -0.9610    2.2410    0.2390 O          1 5FC     -0.647151
     16 C2'        -2.8370    0.0360   -1.1350 CT         1 5FC     -0.337667
     17 H2'1       -2.4830   -0.7300   -1.8170 HC         1 5FC      0.121199
     18 HHO4       -3.3530   -1.5260    0.8700 HO         1 5FC      0.470046
     19 H2'2       -3.9160   -0.0540   -1.0460 HC         1 5FC      0.121199
     20 H2'3       -2.6110    1.0140   -1.5390 HC         1 5FC      0.121199
@<TRIPOS>BOND
    1     1     2 1
    2     2     4 1
    3     2    16 1
    4     4     5 1
    5     4    14 1
    6     5     7 1
    7     7     8 1
    8     7     9 1
    9     9    10 1
   10     9    13 1
   11    13    14 1
   12    14    15 1
   13     1    18 1
   14     2     3 1
   15     5     6 1
   16    10    11 1
   17    10    12 1
   18    16    17 1
   19    16    19 1
   20    16    20 1
@<TRIPOS>SUBSTRUCTURE
      1 5FC               1 ****               0 ****  **** 
