@<TRIPOS>MOLECULE
modXNA-fragment:5NI:HEAD01:@N9:HEAD01STRIP:@C1',H1',O4',HHO4,C2',H2'1,H2'3,H2'2
   27    28     1     0     0
SMALL
USER_CHARGES


@<TRIPOS>ATOM
      1 O4'         4.0660   -0.1380    1.0280 OH         1 5NI     -0.731585
      2 C1'         3.0840   -0.7280    0.2290 CT         1 5NI      0.295540
      3 H1'         2.6990   -1.6180    0.7140 H2         1 5NI      0.035245
      4 N9          1.9960    0.2120    0.1560 N*         1 5NI      0.078268
      5 C8          2.1290    1.5740    0.0120 CA         1 5NI     -0.122303
      6 C7          0.9230    2.1520   -0.1520 C*         1 5NI     -0.320525
      7 C5         -0.0510    1.0930   -0.1230 CB         1 5NI      0.143194
      8 C6         -1.4430    1.0680   -0.2380 CA         1 5NI     -0.221523
      9 C13        -2.0940   -0.1430   -0.1640 CA         1 5NI      0.153267
     10 C2         -1.3740   -1.3370    0.0060 CA         1 5NI     -0.109200
     11 C16        -0.0040   -1.3250    0.1190 CA         1 5NI     -0.212011
     12 C4          0.6570   -0.0990    0.0630 CB         1 5NI     -0.010664
     13 C2'         3.6290   -1.0920   -1.1480 CT         1 5NI     -0.288878
     14 H2'1        4.0230   -0.2090   -1.6390 HC         1 5NI      0.102490
     15 HHO4        4.8650   -0.6440    0.9770 HO         1 5NI      0.466597
     16 H2'2        4.4240   -1.8280   -1.0640 HC         1 5NI      0.102490
     17 H2'3        2.8450   -1.5130   -1.7660 HC         1 5NI      0.102490
     18 H8          3.0980    2.0210    0.0660 H4         1 5NI      0.217876
     19 H7          0.7350    3.2000   -0.2660 HA         1 5NI      0.212805
     20 H6         -1.9950    1.9730   -0.3950 HA         1 5NI      0.185700
     21 N13        -3.5160   -0.1970   -0.3610 N2         1 5NI     -0.080460
     22 H2         -1.9030   -2.2660    0.0550 HA         1 5NI      0.145810
     23 H16         0.5250   -2.2520    0.2510 HA         1 5NI      0.173359
     24 O11        -4.0270   -1.2420    0.3880 OH         1 5NI     -0.490678
     25 O12        -4.1270    0.9500    0.0810 OH         1 5NI     -0.490678
     26 1HO1       -4.7780   -1.5380   -0.1100 HO         1 5NI      0.441124
     27 2HO1       -3.9350    1.0300    1.0140 HO         1 5NI      0.441124
@<TRIPOS>BOND
    1     1     2 1
    2     2     4 1
    3     2    13 1
    4     4     5 1
    5     4    12 1
    6     5     6 1
    7     6     7 1
    8     7     8 1
    9     7    12 1
   10     8     9 1
   11     9    10 1
   12     9    21 1
   13    10    11 1
   14    11    12 1
   15    21    24 1
   16    21    25 1
   17     1    15 1
   18     2     3 1
   19     5    18 1
   20     6    19 1
   21     8    20 1
   22    10    22 1
   23    11    23 1
   24    13    14 1
   25    13    16 1
   26    13    17 1
   27    24    26 1
   28    25    27 1
@<TRIPOS>SUBSTRUCTURE
      1 5NI               1 ****               0 ****  **** 
