@<TRIPOS>MOLECULE
modXNA-fragment:5NU:HEAD01:@N1:HEAD01STRIP:@C1',H1',C2',H2'1,H2'2,H2'3,O4',HHO4
   22    22     1     0     0
SMALL
USER_CHARGES


@<TRIPOS>ATOM
      1 C1'         2.4790   -0.4970   -0.1100 CT         1 5NU     -2.868533
      2 C2'         2.8210   -1.3710    1.0900 CT         1 5NU     -3.917578
      3 O4'         2.5680   -1.2150   -1.3050 OH         1 5NU      0.762845
      4 O4         -2.4220    1.8670    0.2980 O          1 5NU      0.127100
      5 C4         -1.4020    1.2530    0.1730 C          1 5NU     -0.846485
      6 N3         -0.2070    1.9610    0.0250 NA         1 5NU      0.780116
      7 C2          1.0770    1.4910   -0.0490 C          1 5NU     -1.039810
      8 O2          2.0150    2.2450   -0.1540 O          1 5NU      0.359793
      9 N1          1.1790    0.1370    0.0380 N*         1 5NU      1.414642
     10 C6          0.0340   -0.6620    0.1200 CM         1 5NU     -0.106585
     11 C5         -1.2070   -0.1990    0.1720 CM         1 5NU      0.772361
     12 H1'         3.1930    0.3010   -0.1960 H2         1 5NU      1.497977
     13 H2'1        3.8140   -1.7860    0.9550 HC         1 5NU      1.905579
     14 H2'2        2.8050   -0.7830    2.0010 HC         1 5NU      1.905579
     15 H3         -0.2920    2.9540    0.0060 H          1 5NU      0.381333
     16 H6          0.1480   -1.7260    0.1520 H4         1 5NU     -0.819902
     17 N17        -2.3110   -1.0720    0.3360 N2         1 5NU     -0.942996
     18 H2'3        2.1220   -2.1920    1.2060 HC         1 5NU      1.905579
     19 HHO4        1.8800   -1.8680   -1.3440 HO         1 5NU      0.745898
     20 O8         -3.1460   -0.7680   -0.8100 OH         1 5NU     -0.655324
     21 O9         -1.9130   -2.3480    0.2780 O2         1 5NU      0.300011
     22 HO8        -3.9210   -0.4060   -0.4060 HO         1 5NU      0.866810
@<TRIPOS>BOND
    1     1     2 1
    2     1     3 1
    3     1     9 1
    4     4     5 1
    5     5     6 1
    6     5    11 1
    7     6     7 1
    8     7     8 1
    9     7     9 1
   10     9    10 1
   11    10    11 1
   12    11    17 1
   13    17    20 1
   14    17    21 1
   15     1    12 1
   16     2    13 1
   17     2    14 1
   18     2    18 1
   19     3    19 1
   20     6    15 1
   21    10    16 1
   22    20    22 1
@<TRIPOS>SUBSTRUCTURE
      1 5NU               1 ****               0 ****  **** 
