@<TRIPOS>MOLECULE
modXNA-fragment:5SU:HEAD01:@N1:HEAD01STRIP:@C1',H1',O4',HHO4,C2',H2'1,H2'3,H2'2
   22    22     1     0     0
SMALL
USER_CHARGES


@<TRIPOS>ATOM
      1 O4'        -2.0050   -1.9060    0.9980 OH         1 5SU     -0.707317
      2 C1'        -1.9670   -0.8300    0.1250 CT         1 5SU      0.407373
      3 H1'        -2.6060   -0.0320    0.4570 H2         1 5SU     -0.027054
      4 N1         -0.5910   -0.2670    0.1030 N*         1 5SU      0.193029
      5 C6          0.4630   -1.1710    0.0520 CM         1 5SU     -0.264671
      6 H6          0.1540   -2.1950    0.0910 H4         1 5SU      0.242650
      7 C5          1.7450   -0.8260   -0.0150 CM         1 5SU      0.068031
      8 C8          2.8850   -1.8040   -0.0630 CT         1 5SU     -0.354645
      9 C4          2.0560    0.6010   -0.0360 C          1 5SU      0.455115
     10 O4          3.1500    1.0760   -0.0890 O          1 5SU     -0.559051
     11 N3          0.9360    1.4220    0.0110 NA         1 5SU     -0.186285
     12 H3          1.1160    2.4040   -0.0140 H          1 5SU      0.265467
     13 C2         -0.3680    1.0640    0.0650 C          1 5SU     -0.064184
     14 S2         -1.5540    2.2540    0.0750 S          1 5SU     -0.392116
     15 C2'        -2.3850   -1.3100   -1.2490 CT         1 5SU     -0.204755
     16 H2'1       -1.7360   -2.1060   -1.5960 HC         1 5SU      0.081250
     17 HHO4       -2.0080   -1.5970    1.8950 HO         1 5SU      0.429426
     18 H2'2       -3.3960   -1.6930   -1.2000 HC         1 5SU      0.081250
     19 H2'3       -2.3520   -0.4900   -1.9560 HC         1 5SU      0.081250
     20 H81         2.5200   -2.8240   -0.0370 HC         1 5SU      0.147297
     21 H82         3.5540   -1.6530    0.7770 HC         1 5SU      0.147297
     22 H83         3.4680   -1.6670   -0.9660 HC         1 5SU      0.147297
@<TRIPOS>BOND
    1     1     2 1
    2     2     4 1
    3     2    15 1
    4     4     5 1
    5     4    13 1
    6     5     7 1
    7     7     8 1
    8     7     9 1
    9     9    10 1
   10     9    11 1
   11    11    13 1
   12    13    14 1
   13     1    17 1
   14     2     3 1
   15     5     6 1
   16     8    20 1
   17     8    21 1
   18     8    22 1
   19    11    12 1
   20    15    16 1
   21    15    18 1
   22    15    19 1
@<TRIPOS>SUBSTRUCTURE
      1 5SU               1 ****               0 ****  **** 
