@<TRIPOS>MOLECULE
modXNA-fragment:6BU:HEAD01:@N1:HEAD01STRIP:@C1',H1',C2',H2'1,H2'2,H2'3,O4',HHO4
   19    19     1     0     0
SMALL
USER_CHARGES


@<TRIPOS>ATOM
      1 C1'         0.8860    1.7660   -0.2140 CT         1 6BU      0.257040
      2 C2'         1.6700    1.9940    1.0700 CT         1 6BU     -0.342594
      3 O4'         1.6650    1.4670   -1.3130 OH         1 6BU     -0.679784
      4 O4         -3.4370   -1.6470   -0.0270 O          1 6BU     -0.587635
      5 C4         -2.4550   -0.9700   -0.0150 C          1 6BU      0.578815
      6 N3         -2.5300    0.4090    0.0210 NA         1 6BU     -0.618103
      7 C2         -1.4990    1.3070    0.0230 C          1 6BU      0.511942
      8 O2         -1.7030    2.4830    0.0710 O          1 6BU     -0.606300
      9 N1         -0.2170    0.7680   -0.0310 N*         1 6BU      0.051344
     10 C6         -0.0730   -0.6030   -0.0120 CM         1 6BU     -0.113435
     11 C5         -1.0840   -1.4660   -0.0110 CM         1 6BU     -0.208875
     12 H1'         0.3610    2.6660   -0.4630 H2         1 6BU      0.138477
     13 H2'1        2.3990    2.7770    0.8960 HC         1 6BU      0.123245
     14 H2'2        0.9970    2.3190    1.8540 HC         1 6BU      0.123245
     15 H3         -3.4420    0.8140    0.0480 H          1 6BU      0.382014
     16 BR16        1.6690   -1.3380    0.0720 Br         1 6BU      0.046864
     17 H5         -0.9290   -2.5240    0.0150 HA         1 6BU      0.168107
     18 H2'3        2.1880    1.1060    1.4060 HC         1 6BU      0.123245
     19 HHO4        2.3530    0.8550   -1.0940 HO         1 6BU      0.436737
@<TRIPOS>BOND
    1     1     2 1
    2     1     3 1
    3     1     9 1
    4     4     5 1
    5     5     6 1
    6     5    11 1
    7     6     7 1
    8     7     8 1
    9     7     9 1
   10     9    10 1
   11    10    11 1
   12    10    16 1
   13     1    12 1
   14     2    13 1
   15     2    14 1
   16     2    18 1
   17     3    19 1
   18     6    15 1
   19    11    17 1
@<TRIPOS>SUBSTRUCTURE
      1 6BU               1 ****               0 ****  **** 
