@<TRIPOS>MOLECULE
modXNA-fragment:7AT:HEAD01:@N9:HEAD01STRIP:@C1',H1',O4',HHO4,C2',H2'1,H2'3,H2'2
   29    31     1     0     0
SMALL
USER_CHARGES


@<TRIPOS>ATOM
      1 O4'        -3.3560   -1.0770    1.3290 OH         1 7AT     -0.664084
      2 C1'        -3.1390   -0.7340   -0.0100 CT         1 7AT      0.316172
      3 H1'        -3.6750    0.1720   -0.2560 H2         1 7AT      0.032990
      4 N9         -1.7460   -0.3940   -0.1410 N*         1 7AT      0.055917
      5 N5         -0.7890   -1.3440   -0.1540 NB         1 7AT     -0.414439
      6 C7          0.3560   -0.7570   -0.1180 CV         1 7AT      0.039715
      7 C5          0.1800    0.6740   -0.0690 CB         1 7AT     -0.425608
      8 C6          0.9170    1.8830   -0.0300 CA         1 7AT      0.759121
      9 N6          2.2520    1.9630   -0.0530 N2         1 7AT     -1.017289
     10 H61         2.8540    1.1770    0.0080 H          1 7AT      0.437645
     11 H62         2.6540    2.8690    0.0370 H          1 7AT      0.437645
     12 N1          0.2610    3.0350    0.0130 NC         1 7AT     -0.887540
     13 C2         -1.0660    3.0170    0.0090 CQ         1 7AT      0.556366
     14 H2         -1.5350    3.9840    0.0450 H5         1 7AT      0.045160
     15 N3         -1.8690    1.9860   -0.0340 NC         1 7AT     -0.873858
     16 C4         -1.2030    0.8330   -0.0710 CB         1 7AT      0.517893
     17 C2'        -3.5280   -1.8610   -0.9510 CT         1 7AT     -0.305050
     18 H2'1       -3.3360   -1.5850   -1.9820 HC         1 7AT      0.111708
     19 HHO4       -4.2870   -1.1670    1.4850 HO         1 7AT      0.429165
     20 H2'2       -4.5890   -2.0680   -0.8480 HC         1 7AT      0.111708
     21 H2'3       -2.9750   -2.7590   -0.7140 HC         1 7AT      0.111708
     22 C9          1.5830   -1.6360   -0.1070 CT         1 7AT      0.381575
     23 N23         2.6230   -1.2980   -1.0610 NT         1 7AT     -0.407539
     24 N24         3.7500   -0.8640   -0.4400 N2         1 7AT     -0.144665
     25 N25         3.6320   -1.0930    0.8600 N2         1 7AT     -0.334615
     26 C26         2.4300   -1.5370    1.1320 CM         1 7AT      0.181889
     27 H9          1.2280   -2.6480   -0.2610 H1         1 7AT     -0.047953
     28 H23         2.4140   -0.8110   -1.9040 H          1 7AT      0.311116
     29 H26         2.1250   -1.7750    2.1300 HA         1 7AT      0.046599
@<TRIPOS>BOND
    1     1     2 1
    2     2     4 1
    3     2    17 1
    4     4     5 1
    5     4    16 1
    6     5     6 1
    7     6     7 1
    8     6    22 1
    9     7     8 1
   10     7    16 1
   11     8     9 1
   12     8    12 1
   13    12    13 1
   14    13    15 1
   15    15    16 1
   16    22    23 1
   17    22    26 1
   18    23    24 1
   19    24    25 1
   20    25    26 1
   21     1    19 1
   22     2     3 1
   23     9    10 1
   24     9    11 1
   25    13    14 1
   26    17    18 1
   27    17    20 1
   28    17    21 1
   29    22    27 1
   30    23    28 1
   31    26    29 1
@<TRIPOS>SUBSTRUCTURE
      1 7AT               1 ****               0 ****  **** 
