@<TRIPOS>MOLECULE
modXNA-fragment:7MG:HEAD01:@N9:HEAD01STRIP:@C1',H1',O4',HHO4,C2',H2'1,H2'3,H2'2
   30    31     1     0     0
SMALL
USER_CHARGES


@<TRIPOS>ATOM
      1 O4'         2.9860   -1.4870    1.2740 OH         1 7MG     -0.721047
      2 C1'         2.3140   -1.5530    0.0400 CT         1 7MG      0.351969
      3 H1'         1.5840   -2.3490    0.0570 H2         1 7MG      0.038661
      4 N9          1.5790   -0.3360   -0.1110 N*         1 7MG     -0.023148
      5 C8          2.1690    0.9530   -0.2330 CR         1 7MG     -0.246023
      6 H8          3.0220    1.1600    0.3930 H5         1 7MG      0.229777
      7 N7          1.1120    1.8820   -0.2510 N*         1 7MG     -0.183078
      8 C5         -0.0770    1.1290   -0.1140 CB         1 7MG     -0.199261
      9 C6         -1.4270    1.5320   -0.1720 C          1 7MG      0.471342
     10 O6         -1.9240    2.6260   -0.2670 O          1 7MG     -0.593611
     11 N1         -2.2860    0.4070   -0.0690 NA         1 7MG     -0.442461
     12 H1         -3.2540    0.6400   -0.0940 H          1 7MG      0.361163
     13 C2         -1.8820   -0.8790    0.0050 CA         1 7MG      0.629255
     14 N2         -2.8260   -1.8370    0.0670 N2         1 7MG     -0.541650
     15 C15        -4.2510   -1.6260    0.1580 CT         1 7MG     -0.124404
     16 H2         -2.4610   -2.7560    0.1670 H          1 7MG      0.370679
     17 N3         -0.6310   -1.2330    0.0120 NC         1 7MG     -0.907248
     18 C4          0.2320   -0.2000   -0.0490 CB         1 7MG      0.452654
     19 C2'         3.2950   -1.7710   -1.1060 CT         1 7MG     -0.391289
     20 H2'1        4.0240   -0.9710   -1.1440 HC         1 7MG      0.134006
     21 HHO4        3.5360   -2.2520    1.3770 HO         1 7MG      0.437765
     22 H2'2        3.8230   -2.7120   -0.9750 HC         1 7MG      0.134006
     23 H2'3        2.7670   -1.8070   -2.0520 HC         1 7MG      0.134006
     24 1H15       -4.7290   -2.5920    0.2250 H1         1 7MG      0.105523
     25 2H15       -4.6390   -1.1260   -0.7230 H1         1 7MG      0.105523
     26 3H15       -4.5240   -1.0540    1.0390 H1         1 7MG      0.105523
     27 C27         1.2630    3.1170    0.4920 CT         1 7MG     -0.066527
     28 1H27        2.1740    3.6090    0.1760 H1         1 7MG      0.080148
     29 2H27        1.3090    2.9480    1.5680 H1         1 7MG      0.080148
     30 3H27        0.4260    3.7640    0.2740 H1         1 7MG      0.080148
@<TRIPOS>BOND
    1     1     2 1
    2     2     4 1
    3     2    19 1
    4     4     5 1
    5     4    18 1
    6     5     7 1
    7     7     8 1
    8     7    27 1
    9     8     9 1
   10     8    18 1
   11     9    10 1
   12     9    11 1
   13    11    13 1
   14    13    14 1
   15    13    17 1
   16    14    15 1
   17    17    18 1
   18     1    21 1
   19     2     3 1
   20     5     6 1
   21    11    12 1
   22    14    16 1
   23    15    24 1
   24    15    25 1
   25    15    26 1
   26    19    20 1
   27    19    22 1
   28    19    23 1
   29    27    28 1
   30    27    29 1
   31    27    30 1
@<TRIPOS>SUBSTRUCTURE
      1 7MG               1 ****               0 ****  **** 
