@<TRIPOS>MOLECULE
modXNA-fragment:8AZ:HEAD01:@N9:HEAD01STRIP:@C1',H1',O4',HHO4,C2',H2'1,H2'3,H2'2
   22    23     1     0     0
SMALL
USER_CHARGES


@<TRIPOS>ATOM
      1 O4'        -2.6610    0.4930    1.4100 OH         1 8AZ     -0.645721
      2 C1'        -2.3960    0.4890    0.0380 CT         1 8AZ      0.232782
      3 H1'        -2.2350    1.4990   -0.3130 H2         1 8AZ      0.054440
      4 N9         -1.1320   -0.1830   -0.1430 N*         1 8AZ      0.154860
      5 N5         -1.0350   -1.5160   -0.1850 NB         1 8AZ     -0.143637
      6 N7          0.1850   -1.8360   -0.2430 NB         1 8AZ     -0.368751
      7 C5          0.9320   -0.7070   -0.2280 CB         1 8AZ     -0.120391
      8 C6          2.4100   -0.5450   -0.2410 CT         1 8AZ      0.649651
      9 N1          2.6200    0.9030   -0.3310 NT         1 8AZ     -1.008064
     10 C2          1.6790    1.8620   -0.2160 CM         1 8AZ      0.518613
     11 H2          2.0620    2.8670   -0.2130 HA         1 8AZ      0.066957
     12 N3          0.4150    1.6920   -0.1340 N2         1 8AZ     -0.831627
     13 C4          0.0950    0.3580   -0.1550 CB         1 8AZ      0.382006
     14 C2'        -3.5030   -0.1840   -0.7560 CT         1 8AZ     -0.265003
     15 H2'1       -3.6530   -1.1970   -0.4110 HC         1 8AZ      0.098293
     16 HHO4       -3.4300    1.0210    1.5810 HO         1 8AZ      0.431119
     17 H2'2       -4.4260    0.3720   -0.6230 HC         1 8AZ      0.098293
     18 H2'3       -3.2640   -0.2000   -1.8130 HC         1 8AZ      0.098293
     19 O7          3.0700   -1.0750    0.8620 OH         1 8AZ     -0.779970
     20 H6          2.8830   -1.0150   -1.0900 H2         1 8AZ      0.008821
     21 H1          3.5700    1.1990   -0.3400 H          1 8AZ      0.449815
     22 HO7         2.5470   -0.9380    1.6420 HO         1 8AZ      0.477855
@<TRIPOS>BOND
    1     1     2 1
    2     2     4 1
    3     2    14 1
    4     4     5 1
    5     4    13 1
    6     5     6 1
    7     6     7 1
    8     7     8 1
    9     7    13 1
   10     8     9 1
   11     8    19 1
   12     9    10 1
   13    10    12 1
   14    12    13 1
   15     1    16 1
   16     2     3 1
   17     8    20 1
   18     9    21 1
   19    10    11 1
   20    14    15 1
   21    14    17 1
   22    14    18 1
   23    19    22 1
@<TRIPOS>SUBSTRUCTURE
      1 8AZ               1 ****               0 ****  **** 
