@<TRIPOS>MOLECULE
modXNA-fragment:8OG:HEAD01:@N9:HEAD01STRIP:@C1',H1',O4',HHO4,C2',H2'1,H2'3,H2'2
   24    25     1     0     0
SMALL
USER_CHARGES


@<TRIPOS>ATOM
      1 O4'         3.0460   -0.8620    1.1680 OH         1 8OG     -0.755712
      2 C1'         2.1820   -1.1190    0.1210 CT         1 8OG      0.503913
      3 H1'         1.6450   -2.0190    0.3730 H2         1 8OG      0.043368
      4 N9          1.1650   -0.0640    0.0270 N*         1 8OG     -0.311958
      5 C8          1.4880    1.2850   -0.0000 CK         1 8OG      0.514195
      6 O6          2.6070    1.7340    0.0210 O          1 8OG     -0.635575
      7 N7          0.3100    1.9490   -0.0460 NA         1 8OG     -0.537134
      8 C5         -0.7440    1.0310   -0.0160 CB         1 8OG     -0.199516
      9 C6         -2.1490    1.1960   -0.0470 C          1 8OG      0.616353
     10 O6         -2.8120    2.1950   -0.1010 O          1 8OG     -0.614804
     11 N1         -2.7750   -0.0690   -0.0060 NA         1 8OG     -0.639957
     12 H1         -3.7690   -0.0370   -0.0830 H          1 8OG      0.432650
     13 C2         -2.1350   -1.2630    0.0420 CA         1 8OG      0.772412
     14 N2         -2.9150   -2.3740    0.0260 N2         1 8OG     -0.986096
     15 H21        -3.8360   -2.3200    0.4000 H          1 8OG      0.420959
     16 H22        -2.4280   -3.2220    0.2180 H          1 8OG      0.420959
     17 N3         -0.8480   -1.3860    0.0650 NC         1 8OG     -0.784574
     18 C4         -0.1930   -0.2080    0.0290 CB         1 8OG      0.368687
     19 C2'         2.9060   -1.2920   -1.2060 CT         1 8OG     -0.392425
     20 H2'1        3.4210   -0.3800   -1.4830 HC         1 8OG      0.131147
     21 HHO4        3.4810   -0.0310    1.0060 HO         1 8OG      0.469401
     22 H2'2        3.6350   -2.0890   -1.1110 HC         1 8OG      0.131147
     23 H2'3        2.2050   -1.5510   -1.9920 HC         1 8OG      0.131147
     24 H7          0.2380    2.9400   -0.0280 H          1 8OG      0.413941
@<TRIPOS>BOND
    1     1     2 1
    2     2     4 1
    3     2    19 1
    4     4     5 1
    5     4    18 1
    6     5     6 1
    7     5     7 1
    8     7     8 1
    9     8     9 1
   10     8    18 1
   11     9    10 1
   12     9    11 1
   13    11    13 1
   14    13    14 1
   15    13    17 1
   16    17    18 1
   17     1    21 1
   18     2     3 1
   19     7    24 1
   20    11    12 1
   21    14    15 1
   22    14    16 1
   23    19    20 1
   24    19    22 1
   25    19    23 1
@<TRIPOS>SUBSTRUCTURE
      1 8OG               1 ****               0 ****  **** 
