@<TRIPOS>MOLECULE
modXNA-fragment:A4C:HEAD01:@N1:HEAD01STRIP:@C1',H1',O4',HHO4,C2',H2'1,H2'3,H2'2
   25    25     1     0     0
SMALL
USER_CHARGES


@<TRIPOS>ATOM
      1 O4'         3.6380   -1.0610   -0.6890 OH         1 A4C     -0.761025
      2 C1'         3.0620    0.1230   -0.2140 CT         1 A4C      0.334079
      3 H1'         3.1840    0.9200   -0.9300 H2         1 A4C      0.046669
      4 N1          1.6230   -0.1310   -0.1300 N*         1 A4C     -0.244380
      5 C6          1.1310   -1.3770    0.0400 CM         1 A4C      0.150146
      6 H6          1.8530   -2.1660    0.0870 H4         1 A4C      0.205856
      7 C5         -0.1890   -1.5950    0.1290 CM         1 A4C     -0.605640
      8 H5         -0.5860   -2.5820    0.2580 HA         1 A4C      0.252584
      9 C4         -1.0290   -0.4330    0.0190 CA         1 A4C      0.738013
     10 N4         -2.3860   -0.6740    0.0840 N2         1 A4C     -0.815197
     11 C11        -3.4600    0.2130    0.0190 C          1 A4C      0.668417
     12 H4         -2.6330   -1.6310    0.1930 H          1 A4C      0.371626
     13 N3         -0.5770    0.7570   -0.1330 NC         1 A4C     -0.740827
     14 C2          0.7690    0.9830   -0.1940 CA         1 A4C      0.653028
     15 O2          1.2550    2.0740   -0.2940 OS         1 A4C     -0.627289
     16 C2'         3.6390    0.5280    1.1320 CT         1 A4C     -0.321911
     17 H2'1        3.5050   -0.2710    1.8540 HC         1 A4C      0.118490
     18 HHO4        4.5640   -0.9230   -0.8280 HO         1 A4C      0.481062
     19 H2'2        4.7030    0.7300    1.0370 HC         1 A4C      0.118490
     20 H2'3        3.1550    1.4260    1.4910 HC         1 A4C      0.118490
     21 C9         -4.7940   -0.5000    0.1250 CT         1 A4C     -0.360827
     22 O10        -3.3650    1.3850   -0.1050 OS         1 A4C     -0.561170
     23 H91        -5.5820    0.2360    0.0730 HC         1 A4C      0.128302
     24 H92        -4.8690   -1.0390    1.0650 HC         1 A4C      0.128302
     25 H93        -4.9150   -1.2140   -0.6840 HC         1 A4C      0.128302
@<TRIPOS>BOND
    1     1     2 1
    2     2     4 1
    3     2    16 1
    4     4     5 1
    5     4    14 1
    6     5     7 1
    7     7     9 1
    8     9    10 1
    9     9    13 1
   10    10    11 1
   11    11    21 1
   12    11    22 1
   13    13    14 1
   14    14    15 1
   15     1    18 1
   16     2     3 1
   17     5     6 1
   18     7     8 1
   19    10    12 1
   20    16    17 1
   21    16    19 1
   22    16    20 1
   23    21    23 1
   24    21    24 1
   25    21    25 1
@<TRIPOS>SUBSTRUCTURE
      1 A4C               1 ****               0 ****  **** 
