@<TRIPOS>MOLECULE
modXNA-fragment:A6A:HEAD01:@N9:HEAD01STRIP:@C1',H1',O4',HHO4,C2',H2'1,H2'3,H2'2
   27    28     1     0     0
SMALL
USER_CHARGES


@<TRIPOS>ATOM
      1 O4'         4.1630   -0.9960   -0.7240 OH         1 A6A     -0.736933
      2 C1'         3.4670    0.0780   -0.1710 CT         1 A6A      0.302841
      3 H1'         3.5000    0.9390   -0.8270 H2         1 A6A      0.065733
      4 N9          2.0800   -0.3440   -0.1230 N*         1 A6A     -0.124036
      5 C8          1.5860   -1.6190   -0.0160 CK         1 A6A      0.203810
      6 H8          2.2460   -2.4600    0.0060 H5         1 A6A      0.161389
      7 N7          0.3050   -1.6810    0.0310 NB         1 A6A     -0.619946
      8 C5         -0.0980   -0.3640   -0.0460 CB         1 A6A     -0.044816
      9 C6         -1.3520    0.2500   -0.0470 CA         1 A6A      0.535204
     10 N6         -2.4660   -0.5510    0.0420 N2         1 A6A     -0.675106
     11 C11        -3.8110   -0.2090    0.0740 C          1 A6A      0.652534
     12 H6         -2.2510   -1.5230    0.0900 H          1 A6A      0.346974
     13 N1         -1.4210    1.5610   -0.1340 NC         1 A6A     -0.711094
     14 C2         -0.2870    2.2500   -0.2160 CQ         1 A6A      0.453237
     15 H2         -0.4040    3.3150   -0.2830 H5         1 A6A      0.059095
     16 N3          0.9470    1.7980   -0.2240 NC         1 A6A     -0.762581
     17 C4          0.9900    0.4760   -0.1410 CB         1 A6A      0.366158
     18 C2'         3.9890    0.4530    1.2070 CT         1 A6A     -0.353314
     19 H2'1        3.9410   -0.4020    1.8710 HC         1 A6A      0.133127
     20 HHO4        5.0930   -0.8130   -0.7140 HO         1 A6A      0.480457
     21 H2'2        5.0210    0.7860    1.1400 HC         1 A6A      0.133127
     22 H2'3        3.4020    1.2620    1.6240 HC         1 A6A      0.133127
     23 C9         -4.7100   -1.4250    0.1710 CT         1 A6A     -0.375045
     24 O11        -4.2270    0.9010    0.0330 OS         1 A6A     -0.575763
     25 H91        -5.7370   -1.0930    0.1970 HC         1 A6A      0.134052
     26 H92        -4.4920   -1.9930    1.0690 HC         1 A6A      0.134052
     27 H93        -4.5640   -2.0780   -0.6840 HC         1 A6A      0.134052
@<TRIPOS>BOND
    1     1     2 1
    2     2     4 1
    3     2    18 1
    4     4     5 1
    5     4    17 1
    6     5     7 1
    7     7     8 1
    8     8     9 1
    9     8    17 1
   10     9    10 1
   11     9    13 1
   12    10    11 1
   13    11    23 1
   14    11    24 1
   15    13    14 1
   16    14    16 1
   17    16    17 1
   18     1    20 1
   19     2     3 1
   20     5     6 1
   21    10    12 1
   22    14    15 1
   23    18    19 1
   24    18    21 1
   25    18    22 1
   26    23    25 1
   27    23    26 1
   28    23    27 1
@<TRIPOS>SUBSTRUCTURE
      1 A6A               1 ****               0 ****  **** 
