@<TRIPOS>MOLECULE
modXNA-fragment:A7C:HEAD01:@N9:HEAD01STRIP:@C1',H1',O4',HHO4,C2',H2'1,H2'3,H2'2
   38    41     1     0     0
SMALL
USER_CHARGES


@<TRIPOS>ATOM
      1 O4'         4.5780    2.9560    1.4620 OH         1 A7C     -0.647127
      2 C1'         4.7070    2.5940    0.1160 CT         1 A7C      0.385689
      3 H1'         5.7470    2.4250   -0.1270 H2         1 A7C      0.020834
      4 N9          4.0720    1.3160   -0.0530 N*         1 A7C     -0.089916
      5 N5          2.7260    1.1940   -0.0630 NB         1 A7C     -0.384824
      6 C7          2.4500   -0.0650   -0.0780 CB         1 A7C      0.187018
      7 C5          3.6560   -0.8440   -0.0650 CB         1 A7C     -0.507744
      8 C6          4.0950   -2.1910   -0.0740 CA         1 A7C      0.851154
      9 N6          3.2730   -3.2380   -0.1080 N2         1 A7C     -1.162794
     10 H61         2.2830   -3.1230   -0.1430 H          1 A7C      0.475197
     11 H62         3.6780   -4.1450   -0.1170 H          1 A7C      0.475197
     12 N1          5.4020   -2.4360   -0.0470 NC         1 A7C     -0.924619
     13 C2          6.2410   -1.4100   -0.0150 CQ         1 A7C      0.560567
     14 H2          7.2830   -1.6760    0.0060 H5         1 A7C      0.043515
     15 N3          5.9760   -0.1280   -0.0080 NC         1 A7C     -0.893743
     16 C4          4.6640    0.1100   -0.0330 CB         1 A7C      0.570216
     17 C2'         4.1060    3.6430   -0.8050 CT         1 A7C     -0.348628
     18 H2'1        4.1980    3.3430   -1.8420 HC         1 A7C      0.120485
     19 HHO4        5.1600    3.6790    1.6510 HO         1 A7C      0.408388
     20 H2'2        4.6320    4.5840   -0.6730 HC         1 A7C      0.120485
     21 H2'3        3.0620    3.7950   -0.5690 HC         1 A7C      0.120485
     22 C9          1.0480   -0.4880   -0.0970 CB         1 A7C      0.265166
     23 C23        -0.0750    0.2770   -0.0490 CA         1 A7C     -0.386310
     24 N24        -1.0840   -0.6110   -0.0900 N*         1 A7C      0.571096
     25 N25        -0.6120   -1.8420   -0.1540 NB         1 A7C     -0.355798
     26 N26         0.6530   -1.7800   -0.1580 NB         1 A7C     -0.231425
     27 H23        -0.2170    1.3310    0.0330 H4         1 A7C      0.244871
     28 C10        -2.4830   -0.3730   -0.0610 CA         1 A7C      0.017426
     29 C29        -3.0050    0.7420   -0.6940 CA         1 A7C     -0.178592
     30 C30        -4.3670    0.9830   -0.6490 CA         1 A7C      0.045514
     31 C31        -5.1930    0.0960    0.0150 CA         1 A7C     -0.131108
     32 C32        -4.6760   -1.0270    0.6370 CA         1 A7C      0.045514
     33 C33        -3.3130   -1.2600    0.6050 CA         1 A7C     -0.178592
     34 H29        -2.3640    1.4110   -1.2350 HA         1 A7C      0.168066
     35 H30        -4.7790    1.8450   -1.1370 HA         1 A7C      0.118320
     36 BR12       -7.0590    0.4190    0.0710 Br         1 A7C     -0.058456
     37 H32        -5.3260   -1.7080    1.1490 HA         1 A7C      0.118320
     38 H33        -2.8970   -2.1210    1.0900 HA         1 A7C      0.168066
@<TRIPOS>BOND
    1     1     2 1
    2     2     4 1
    3     2    17 1
    4     4     5 1
    5     4    16 1
    6     5     6 1
    7     6     7 1
    8     6    22 1
    9     7     8 1
   10     7    16 1
   11     8     9 1
   12     8    12 1
   13    12    13 1
   14    13    15 1
   15    15    16 1
   16    22    23 1
   17    22    26 1
   18    23    24 1
   19    24    25 1
   20    24    28 1
   21    25    26 1
   22    28    29 1
   23    28    33 1
   24    29    30 1
   25    30    31 1
   26    31    32 1
   27    31    36 1
   28    32    33 1
   29     1    19 1
   30     2     3 1
   31     9    10 1
   32     9    11 1
   33    13    14 1
   34    17    18 1
   35    17    20 1
   36    17    21 1
   37    23    27 1
   38    29    34 1
   39    30    35 1
   40    32    37 1
   41    33    38 1
@<TRIPOS>SUBSTRUCTURE
      1 A7C               1 ****               0 ****  **** 
