@<TRIPOS>MOLECULE
modXNA-fragment:A7E:HEAD01:@N9:HEAD01STRIP:@C1',H1',O4',HHO4,C2',1H2',2H2',3H2'
   24    25     1     0     0
SMALL
USER_CHARGES


@<TRIPOS>ATOM
      1 O4'         3.0090   -0.1730    1.3070 OH         1 A7E     -0.652742
      2 C1'         2.6390   -0.2760   -0.0370 CT         1 A7E      0.396194
      3 H1'         2.7030   -1.3050   -0.3650 H2         1 A7E      0.009912
      4 N9          1.2400    0.0570   -0.1200 N*         1 A7E     -0.110179
      5 N5          0.8210    1.3370   -0.0540 NB         1 A7E     -0.419600
      6 C7         -0.4680    1.3150   -0.0090 CV         1 A7E      0.451590
      7 C5         -0.9480   -0.0330   -0.0290 CB         1 A7E     -0.620047
      8 C6         -2.1640   -0.7440   -0.0060 CA         1 A7E      0.890959
      9 N6         -3.3590   -0.1410    0.0390 N2         1 A7E     -1.151724
     10 H61        -4.1730   -0.7060    0.1070 H          1 A7E      0.473857
     11 H62        -3.4390    0.8450    0.1290 H          1 A7E      0.473857
     12 N1         -2.1320   -2.0670   -0.0390 NC         1 A7E     -0.932342
     13 C2         -0.9450   -2.6670   -0.0960 CQ         1 A7E      0.567202
     14 H2         -0.9820   -3.7410   -0.1220 H5         1 A7E      0.043184
     15 N3          0.2490   -2.1330   -0.1260 NC         1 A7E     -0.882624
     16 C4          0.2020   -0.8000   -0.0880 CB         1 A7E      0.590562
     17 C2'         3.4790    0.6240   -0.9270 CT         1 A7E     -0.317732
     18 1H2'        3.3960    1.6530   -0.6070 HC         1 A7E      0.113358
     19 HHO4        3.8950   -0.4940    1.4160 HO         1 A7E      0.412489
     20 2H2'        4.5200    0.3210   -0.8650 HC         1 A7E      0.113358
     21 3H2'        3.1640    0.5450   -1.9610 HC         1 A7E      0.113358
     22 C9         -1.2500    2.5180    0.0510 CZ         1 A7E     -0.102505
     23 C10        -1.9390    3.4840    0.1020 CZ         1 A7E     -0.266597
     24 H9         -2.5290    4.3600    0.1470 HA         1 A7E      0.304222
@<TRIPOS>BOND
    1     1     2 1
    2     2     4 1
    3     2    17 1
    4     4     5 1
    5     4    16 1
    6     5     6 1
    7     6     7 1
    8     6    22 1
    9     7     8 1
   10     7    16 1
   11     8     9 1
   12     8    12 1
   13    12    13 1
   14    13    15 1
   15    15    16 1
   16    22    23 1
   17     1    19 1
   18     2     3 1
   19     9    10 1
   20     9    11 1
   21    13    14 1
   22    17    18 1
   23    17    20 1
   24    17    21 1
   25    23    24 1
@<TRIPOS>SUBSTRUCTURE
      1 A7E               1 ****               0 ****  **** 
