@<TRIPOS>MOLECULE
modXNA-fragment:ACG:HEAD01:@N9:HEAD01STRIP:@C1',H1',O4',HHO4,C2',H2'1,H2'3,H2'2
   29    30     1     0     0
SMALL
USER_CHARGES


@<TRIPOS>ATOM
      1 O4'         0.6000    3.4290    1.0610 OH         1 ACG     -0.717598
      2 C1'         1.1950    2.5270    0.1760 CT         1 ACG      0.394192
      3 H1'         2.1510    2.1920    0.5520 H2         1 ACG      0.009605
      4 N9          0.3390    1.3620    0.1500 N*         1 ACG     -0.052268
      5 C8         -1.0420    1.3710    0.1010 CA         1 ACG     -0.143042
      6 H8         -1.5790    2.2900    0.1820 H4         1 ACG      0.213893
      7 C7         -1.5010    0.1020    0.0470 C*         1 ACG     -0.158454
      8 C5         -0.3400   -0.7490    0.0420 CB         1 ACG     -0.259927
      9 C6         -0.1100   -2.1590   -0.1320 C          1 ACG      0.605527
     10 O6         -0.8680   -3.0570   -0.3450 O          1 ACG     -0.603619
     11 N1          1.2740   -2.4510   -0.0660 NA         1 ACG     -0.571921
     12 H1          1.4940   -3.4080   -0.2400 H          1 ACG      0.399030
     13 C2          2.2710   -1.5390    0.0380 CA         1 ACG      0.720931
     14 N2          3.5450   -2.0330    0.0030 N2         1 ACG     -0.995852
     15 H21         3.6960   -2.9330    0.4030 H          1 ACG      0.416179
     16 H22         4.2360   -1.3590    0.2510 H          1 ACG      0.416179
     17 N3          2.0750   -0.2720    0.1200 NC         1 ACG     -0.765936
     18 C4          0.7590    0.0790    0.1100 CB         1 ACG      0.338658
     19 C2'         1.3650    3.1320   -1.2120 CT         1 ACG     -0.363493
     20 H2'1        0.4060    3.4470   -1.6070 HC         1 ACG      0.124817
     21 HHO4        1.0850    4.2430    1.0570 HO         1 ACG      0.450259
     22 H2'2        2.0230    3.9970   -1.1700 HC         1 ACG      0.124817
     23 H2'3        1.8050    2.4070   -1.8870 HC         1 ACG      0.124817
     24 C10        -2.9330   -0.2800    0.0970 CM         1 ACG      0.650426
     25 N10        -3.7500    0.5380   -0.6780 NT         1 ACG     -1.032940
     26 N11        -3.3140   -1.2080    0.8520 N2         1 ACG     -0.852413
     27 1H10       -3.3510    0.8390   -1.5400 H          1 ACG      0.392448
     28 2H10       -4.6890    0.2160   -0.7860 H          1 ACG      0.392448
     29 H11        -4.3050   -1.3680    0.7820 H          1 ACG      0.360216
@<TRIPOS>BOND
    1     1     2 1
    2     2     4 1
    3     2    19 1
    4     4     5 1
    5     4    18 1
    6     5     7 1
    7     7     8 1
    8     7    24 1
    9     8     9 1
   10     8    18 1
   11     9    10 1
   12     9    11 1
   13    11    13 1
   14    13    14 1
   15    13    17 1
   16    17    18 1
   17    24    25 1
   18    24    26 1
   19     1    21 1
   20     2     3 1
   21     5     6 1
   22    11    12 1
   23    14    15 1
   24    14    16 1
   25    19    20 1
   26    19    22 1
   27    19    23 1
   28    25    27 1
   29    25    28 1
   30    26    29 1
@<TRIPOS>SUBSTRUCTURE
      1 ACG               1 ****               0 ****  **** 
