@<TRIPOS>MOLECULE
modXNA-fragment:ADG:HEAD01:@N9:HEAD01STRIP:@C1',H1',O4',HHO4,C2',H2'1,H2'3,H2'2
   28    29     1     0     0
SMALL
USER_CHARGES


@<TRIPOS>ATOM
      1 O4'         0.1930    3.4950    0.9650 OH         1 ADG     -0.743606
      2 C1'         0.8920    2.6500    0.0990 CT         1 ADG      0.422758
      3 H1'         1.8800    2.4400    0.4830 H2         1 ADG     -0.003092
      4 N9          0.1780    1.3920    0.1070 N*         1 ADG     -0.046947
      5 C8         -1.1920    1.2410    0.0660 CA         1 ADG     -0.132726
      6 H8         -1.8290    2.0980    0.0670 H4         1 ADG      0.213510
      7 C7         -1.5020   -0.0730    0.0060 CM         1 ADG     -0.220635
      8 C5         -0.2510   -0.7840    0.0080 CB         1 ADG     -0.200591
      9 C6          0.1330   -2.1700    0.0460 C          1 ADG      0.586609
     10 O6         -0.5280   -3.1630    0.0870 O          1 ADG     -0.590281
     11 N1          1.5430   -2.2970    0.0490 NA         1 ADG     -0.578311
     12 H1          1.8670   -3.2380   -0.0070 H          1 ADG      0.405626
     13 C2          2.4310   -1.2740    0.0790 CA         1 ADG      0.717142
     14 N2          3.7500   -1.6150    0.0430 N2         1 ADG     -0.967884
     15 H21         4.0190   -2.4830    0.4500 H          1 ADG      0.408452
     16 H22         4.3670   -0.8580    0.2390 H          1 ADG      0.408452
     17 N3          2.0900   -0.0340    0.1090 NC         1 ADG     -0.755272
     18 C4          0.7450    0.1640    0.0730 CB         1 ADG      0.298825
     19 C2'         0.9900    3.2350   -1.3030 CT         1 ADG     -0.343518
     20 H2'1        0.0020    3.4240   -1.7060 HC         1 ADG      0.119707
     21 HHO4        0.5460    4.3720    0.9060 HO         1 ADG      0.459595
     22 H2'2        1.5430    4.1700   -1.2850 HC         1 ADG      0.119707
     23 H2'3        1.5120    2.5490   -1.9600 HC         1 ADG      0.119707
     24 C24        -2.8790   -0.6130   -0.1530 C          1 ADG      0.717661
     25 N25        -3.8380    0.0700    0.5490 N          1 ADG     -1.054502
     26 1H25       -3.5770    0.5180    1.3980 H          1 ADG      0.420110
     27 2H25       -4.7420   -0.3490    0.5390 H          1 ADG      0.420110
     28 O28        -3.1470   -1.5200   -0.8830 OS         1 ADG     -0.600780
@<TRIPOS>BOND
    1     1     2 1
    2     2     4 1
    3     2    19 1
    4     4     5 1
    5     4    18 1
    6     5     7 1
    7     7     8 1
    8     7    24 1
    9     8     9 1
   10     8    18 1
   11     9    10 1
   12     9    11 1
   13    11    13 1
   14    13    14 1
   15    13    17 1
   16    17    18 1
   17    24    25 1
   18    24    28 1
   19     1    21 1
   20     2     3 1
   21     5     6 1
   22    11    12 1
   23    14    15 1
   24    14    16 1
   25    19    20 1
   26    19    22 1
   27    19    23 1
   28    25    26 1
   29    25    27 1
@<TRIPOS>SUBSTRUCTURE
      1 ADG               1 ****               0 ****  **** 
