@<TRIPOS>MOLECULE
modXNA-fragment:APT:HEAD01:@N1:HEAD01STRIP:@C1',H1',O4',HHO4,C2',H2'1,H2'3,H2'2
   38    38     1     0     0
SMALL
USER_CHARGES


@<TRIPOS>ATOM
      1 C1'        -3.3510   -1.7230    0.0360 CT         1 APT      0.287855
      2 C2'        -4.5530   -1.5300   -0.8760 CT         1 APT     -0.300959
      3 O4'        -2.4750   -2.6950   -0.4540 OH         1 APT     -0.741753
      4 O4         -0.5110    2.9060    0.5110 O          1 APT     -0.621572
      5 C4         -1.0970    1.8740    0.3480 C          1 APT      0.692574
      6 N3         -2.0820    1.4820    1.2380 NA         1 APT     -0.580961
      7 C2         -2.8510    0.3490    1.1990 C          1 APT      0.584476
      8 O2         -3.7050    0.1300    2.0100 O          1 APT     -0.617062
      9 N1         -2.5630   -0.4970    0.1580 N*         1 APT     -0.086128
     10 C6         -1.6010   -0.1770   -0.7800 CM         1 APT     -0.095429
     11 C5         -0.8700    0.9350   -0.7520 CM         1 APT     -0.229585
     12 C7          0.1760    1.2850   -1.7940 CT         1 APT     -0.086098
     13 H1'        -3.6760   -1.9690    1.0340 H2         1 APT      0.057214
     14 H2'1       -5.1250   -2.4510   -0.9440 HC         1 APT      0.113024
     15 H2'2       -5.2030   -0.7600   -0.4800 HC         1 APT      0.113024
     16 H3         -2.2770    2.1040    1.9940 H          1 APT      0.399077
     17 H6         -1.4750   -0.9150   -1.5450 H4         1 APT      0.242160
     18 N18         1.5380    1.4110   -1.3230 NT         1 APT     -0.801974
     19 H71         0.1490    0.5320   -2.5760 H1         1 APT      0.146699
     20 H72        -0.0950    2.2280   -2.2530 H1         1 APT      0.146699
     21 H2'3       -4.2350   -1.2500   -1.8740 HC         1 APT      0.113024
     22 HHO4       -2.9280   -3.5240   -0.5200 HO         1 APT      0.480555
     23 C11         2.1220    0.2170   -0.7450 CT         1 APT      0.364675
     24 H18         1.5970    2.1790   -0.6840 H          1 APT      0.390221
     25 C11         3.5920    0.4470   -0.4070 CT         1 APT     -0.158644
     26 1H11        2.0420   -0.5830   -1.4770 H1         1 APT     -0.024423
     27 2H11        1.5940   -0.1270    0.1480 H1         1 APT     -0.024423
     28 C13         4.2710   -0.7870    0.1880 CT         1 APT     -0.036431
     29 1H11        3.6690    1.2750    0.2970 HC         1 APT      0.028074
     30 2H11        4.1090    0.7610   -1.3090 HC         1 APT      0.028074
     31 C15         5.7460   -0.5550    0.5250 CT         1 APT      0.468972
     32 1H13        4.1940   -1.6190   -0.5120 HC         1 APT     -0.028449
     33 2H13        3.7460   -1.0970    1.0910 HC         1 APT     -0.028449
     34 N17         6.4490   -1.6940    1.0940 NT         1 APT     -1.127134
     35 1H15        5.8340    0.2710    1.2250 H1         1 APT     -0.061956
     36 2H15        6.2800   -0.2510   -0.3710 H1         1 APT     -0.061956
     37 1H17        6.4230   -2.4750    0.4660 H          1 APT      0.384740
     38 2H17        6.0110   -1.9900    1.9450 H          1 APT      0.384740
@<TRIPOS>BOND
    1     1     2 1
    2     1     3 1
    3     1     9 1
    4     4     5 1
    5     5     6 1
    6     5    11 1
    7     6     7 1
    8     7     8 1
    9     7     9 1
   10     9    10 1
   11    10    11 1
   12    11    12 1
   13    12    18 1
   14    18    23 1
   15    23    25 1
   16    25    28 1
   17    28    31 1
   18    31    34 1
   19     1    13 1
   20     2    14 1
   21     2    15 1
   22     2    21 1
   23     3    22 1
   24     6    16 1
   25    10    17 1
   26    12    19 1
   27    12    20 1
   28    18    24 1
   29    23    26 1
   30    23    27 1
   31    25    29 1
   32    25    30 1
   33    28    32 1
   34    28    33 1
   35    31    35 1
   36    31    36 1
   37    34    37 1
   38    34    38 1
@<TRIPOS>SUBSTRUCTURE
      1 APT               1 ****               0 ****  **** 
