@<TRIPOS>MOLECULE
modXNA-fragment:B5C:HEAD01:@N1:HEAD01STRIP:@C1',H1',O4',HHO4,C2',H2'1,H2'3,H2'2
   20    20     1     0     0
SMALL
USER_CHARGES


@<TRIPOS>ATOM
      1 O4'        -2.4100   -1.9870    0.7940 OH         1 B5C     -0.749622
      2 C1'        -2.7150   -0.7450    0.2270 CT         1 B5C      0.335437
      3 H1'        -3.3570   -0.1740    0.8780 H2         1 B5C      0.054056
      4 N1         -1.4490   -0.0100    0.1600 N*         1 B5C     -0.409220
      5 C6         -0.2670   -0.6540    0.0920 CM         1 B5C      0.343982
      6 H6         -0.3020   -1.7220    0.1140 H4         1 B5C      0.162482
      7 C5          0.8860    0.0270    0.0170 CM         1 B5C     -0.589249
      8 BR5         2.5430   -0.8800   -0.0710 Br         1 B5C     -0.010421
      9 C4          0.7990    1.4650    0.0230 CA         1 B5C      0.939336
     10 N4          1.9080    2.2090   -0.0340 N2         1 B5C     -1.150059
     11 H41         1.8060    3.1980   -0.0130 H          1 B5C      0.474872
     12 H42         2.8130    1.8050   -0.0610 H          1 B5C      0.474872
     13 N3         -0.3440    2.0780    0.0810 NC         1 B5C     -0.953593
     14 C2         -1.5150    1.3980    0.1340 C          1 B5C      0.748472
     15 O2         -2.5970    1.9170    0.1560 O          1 B5C     -0.650304
     16 C2'        -3.3490   -0.8920   -1.1470 CT         1 B5C     -0.309984
     17 H2'1       -2.6960   -1.4560   -1.8040 HC         1 B5C      0.115407
     18 HHO4       -3.2070   -2.4890    0.8950 HO         1 B5C      0.479146
     19 H2'2       -4.2950   -1.4200   -1.0660 HC         1 B5C      0.115407
     20 H2'3       -3.5410    0.0820   -1.5750 HC         1 B5C      0.115407
@<TRIPOS>BOND
    1     1     2 1
    2     2     4 1
    3     2    16 1
    4     4     5 1
    5     4    14 1
    6     5     7 1
    7     7     8 1
    8     7     9 1
    9     9    10 1
   10     9    13 1
   11    13    14 1
   12    14    15 1
   13     1    18 1
   14     2     3 1
   15     5     6 1
   16    10    11 1
   17    10    12 1
   18    16    17 1
   19    16    19 1
   20    16    20 1
@<TRIPOS>SUBSTRUCTURE
      1 B5C               1 ****               0 ****  **** 
