@<TRIPOS>MOLECULE
modXNA-fragment:B8H:HEAD01:@C1:HEAD01STRIP:@C1',H1',O4',HHO4,C2',H2'1,H2'3,H2'2
   22    22     1     0     0
SMALL
USER_CHARGES


@<TRIPOS>ATOM
      1 O4'        -2.4220   -1.6560    0.5300 OH         1 B8H     -0.775698
      2 C1'        -2.2480   -0.2810    0.2740 CT         1 B8H      0.385914
      3 H1'        -2.6130    0.2990    1.1160 H1         1 B8H     -0.004210
      4 C1         -0.7620   -0.0370    0.1560 CM         1 B8H     -0.250217
      5 C6          0.1340   -1.0180    0.0540 CM         1 B8H     -0.030571
      6 H6         -0.1760   -2.0420    0.0550 H4         1 B8H      0.233737
      7 N5          1.4900   -0.8140   -0.0490 N*         1 B8H     -0.111741
      8 C8          2.4280   -1.9260   -0.1550 CT         1 B8H     -0.151697
      9 C4          2.0210    0.4510   -0.0450 C          1 B8H      0.600279
     10 O4          3.1960    0.6630   -0.1320 O          1 B8H     -0.615033
     11 N3          1.0970    1.4570    0.0690 NA         1 B8H     -0.715250
     12 H3          1.4700    2.3830    0.0830 H          1 B8H      0.394183
     13 C2         -0.2770    1.3410    0.1810 C          1 B8H      0.599176
     14 O2         -0.9630    2.3180    0.2910 O          1 B8H     -0.603714
     15 C2'        -3.0110    0.1390   -0.9810 CT         1 B8H     -0.336716
     16 H2'1       -2.6730   -0.4410   -1.8330 HC         1 B8H      0.114606
     17 HHO4       -3.3470   -1.8470    0.5940 HO         1 B8H      0.464087
     18 H2'2       -4.0770   -0.0330   -0.8490 HC         1 B8H      0.114606
     19 H2'3       -2.8650    1.1920   -1.1840 HC         1 B8H      0.114606
     20 H81         1.8680   -2.8490   -0.1410 H1         1 B8H      0.105305
     21 H82         3.1210   -1.9130    0.6740 H1         1 B8H      0.105305
     22 H83         2.9880   -1.8580   -1.0760 H1         1 B8H      0.105305
@<TRIPOS>BOND
    1     1     2 1
    2     2     4 1
    3     2    15 1
    4     4     5 1
    5     4    13 1
    6     5     7 1
    7     7     8 1
    8     7     9 1
    9     9    10 1
   10     9    11 1
   11    11    13 1
   12    13    14 1
   13     1    17 1
   14     2     3 1
   15     5     6 1
   16     8    20 1
   17     8    21 1
   18     8    22 1
   19    11    12 1
   20    15    16 1
   21    15    18 1
   22    15    19 1
@<TRIPOS>SUBSTRUCTURE
      1 B8H               1 ****               0 ****  **** 
