@<TRIPOS>MOLECULE
modXNA-fragment:B8N:HEAD01:@C1:HEAD01STRIP:@C1',H1',O4',HHO4,C2',H2'1,H2'3,H2'2
   36    36     1     0     0
SMALL
USER_CHARGES


@<TRIPOS>ATOM
      1 O4'         4.1310   -1.5930    1.2260 OH         1 B8N     -0.770533
      2 C1'         2.9760   -1.8900    0.4770 CT         1 B8N      0.401909
      3 H1'         2.2980   -2.4960    1.0700 H1         1 B8N     -0.005004
      4 C1          2.2900   -0.5750    0.1880 CM         1 B8N     -0.297513
      5 C6          2.8640    0.6090    0.3990 CM         1 B8N      0.007925
      6 H6          3.8570    0.6770    0.7910 H4         1 B8N      0.230087
      7 N5          2.2400    1.8020    0.1480 N*         1 B8N     -0.171708
      8 C5          2.8970    3.0780    0.4170 CT         1 B8N     -0.135112
      9 C4          0.9580    1.8580   -0.3350 C          1 B8N      0.567216
     10 O4          0.4100    2.9030   -0.5390 O          1 B8N     -0.576977
     11 N3          0.3500    0.6410   -0.5700 N*         1 B8N     -0.441700
     12 C7         -1.0240    0.6440   -1.0830 CT         1 B8N      0.075731
     13 C2          0.9210   -0.5950   -0.3080 C          1 B8N      0.569017
     14 O2          0.2900   -1.6070   -0.4880 O          1 B8N     -0.590148
     15 C2'         3.3370   -2.6540   -0.7950 CT         1 B8N     -0.345009
     16 H2'1        4.0300   -2.0740   -1.3940 HC         1 B8N      0.115139
     17 HHO4        4.5940   -2.3950    1.4200 HO         1 B8N      0.462300
     18 H2'2        3.8100   -3.6010   -0.5440 HC         1 B8N      0.115139
     19 H2'3        2.4520   -2.8690   -1.3790 HC         1 B8N      0.115139
     20 H51         3.8940    2.8790    0.7820 H1         1 B8N      0.103850
     21 H52         2.3450    3.6360    1.1600 H1         1 B8N      0.103850
     22 H53         2.9540    3.6670   -0.4870 H1         1 B8N      0.103850
     23 C8         -2.0650    0.4750    0.0310 CT         1 B8N     -0.155277
     24 H71        -1.0860   -0.1600   -1.7980 H1         1 B8N      0.058868
     25 H72        -1.1720    1.5760   -1.6010 H1         1 B8N      0.058868
     26 C9         -3.3230   -0.2430   -0.4730 CT         1 B8N      0.217782
     27 H81        -2.3380    1.4420    0.4310 HC         1 B8N      0.088835
     28 H82        -1.6450   -0.1090    0.8430 HC         1 B8N      0.088835
     29 C11        -4.4470   -0.0750    0.5580 C          1 B8N      0.569852
     30 N10        -3.0660   -1.6580   -0.7250 NT         1 B8N     -1.021352
     31 H91        -3.6800    0.2600   -1.3670 H1         1 B8N      0.009018
     32 O12        -4.8610   -1.1880    1.1260 OH         1 B8N     -0.598710
     33 O11        -4.8990    0.9900    0.8220 O          1 B8N     -0.605198
     34 H101       -2.0940   -1.8900   -0.6610 H          1 B8N      0.391259
     35 H102       -3.4030   -1.9560   -1.6180 H          1 B8N      0.391259
     36 H12        -4.3620   -1.9120    0.7440 HO         1 B8N      0.402244
@<TRIPOS>BOND
    1     1     2 1
    2     2     4 1
    3     2    15 1
    4     4     5 1
    5     4    13 1
    6     5     7 1
    7     7     8 1
    8     7     9 1
    9     9    10 1
   10     9    11 1
   11    11    12 1
   12    11    13 1
   13    12    23 1
   14    13    14 1
   15    23    26 1
   16    26    29 1
   17    26    30 1
   18    29    32 1
   19    29    33 1
   20     1    17 1
   21     2     3 1
   22     5     6 1
   23     8    20 1
   24     8    21 1
   25     8    22 1
   26    12    24 1
   27    12    25 1
   28    15    16 1
   29    15    18 1
   30    15    19 1
   31    23    27 1
   32    23    28 1
   33    26    31 1
   34    30    34 1
   35    30    35 1
   36    32    36 1
@<TRIPOS>SUBSTRUCTURE
      1 B8N               1 ****               0 ****  **** 
