@<TRIPOS>MOLECULE
modXNA-fragment:BDD:HEAD01:@N1:HEAD01STRIP:@C1',H1',O4',HO4',C2',H2'1,H2'3,H2'2
   21    21     1     0     0
SMALL
USER_CHARGES


@<TRIPOS>ATOM
      1 O4'        -2.4020   -0.1950    1.2460 OH         1 BDD     -0.725689
      2 C1'        -1.9880    0.1620   -0.0480 CT         1 BDD      0.360419
      3 H1'        -2.1850    1.2050   -0.2300 H2         1 BDD      0.064386
      4 N1         -0.5500    0.0070   -0.0880 N          1 BDD     -0.404798
      5 C6          0.0250   -1.2300    0.4300 CT         1 BDD      0.095671
      6 H61        -0.6400   -2.0440    0.1880 H1         1 BDD      0.082029
      7 C5          1.3910   -1.4650   -0.1940 CT         1 BDD     -0.254620
      8 H51         1.2920   -1.6550   -1.2590 HC         1 BDD      0.115158
      9 C4          2.2710   -0.2530   -0.0310 C          1 BDD      0.582446
     10 O5          3.4610   -0.2820    0.0010 O          1 BDD     -0.588281
     11 N3          1.5780    0.9320    0.0580 N          1 BDD     -0.670629
     12 H3          2.1220    1.7690    0.0810 H          1 BDD      0.373710
     13 C2          0.2120    1.1410   -0.0710 C          1 BDD      0.609460
     14 O2         -0.2100    2.2550   -0.1820 O          1 BDD     -0.623362
     15 C2'        -2.6860   -0.6820   -1.1050 CT         1 BDD     -0.398455
     16 H2'1       -2.3430   -0.4040   -2.0950 HC         1 BDD      0.139417
     17 HO4'       -3.3120    0.0400    1.3670 HO         1 BDD      0.452934
     18 H2'2       -2.5130   -1.7410   -0.9550 HC         1 BDD      0.139417
     19 H2'3       -3.7580   -0.5140   -1.0600 HC         1 BDD      0.139417
     20 H62         0.0990   -1.1880    1.5110 H1         1 BDD      0.082029
     21 H52         1.8950   -2.3120    0.2520 HC         1 BDD      0.115158
@<TRIPOS>BOND
    1     1     2 1
    2     2     4 1
    3     2    15 1
    4     4     5 1
    5     4    13 1
    6     5     7 1
    7     7     9 1
    8     9    10 1
    9     9    11 1
   10    11    13 1
   11    13    14 1
   12     1    17 1
   13     2     3 1
   14     5     6 1
   15     5    20 1
   16     7     8 1
   17     7    21 1
   18    11    12 1
   19    15    16 1
   20    15    18 1
   21    15    19 1
@<TRIPOS>SUBSTRUCTURE
      1 BDD               1 ****               0 ****  **** 
