@<TRIPOS>MOLECULE
modXNA-fragment:BGM:HEAD01:@N9:HEAD01STRIP:@C1',H1',O4',HHO4,C2',H2'1,H2'3,H2'2
   23    24     1     0     0
SMALL
USER_CHARGES


@<TRIPOS>ATOM
      1 O4'        -1.8060    2.0780    1.1930 OH         1 BGM     -0.709804
      2 C1'        -0.9900    1.9360    0.0860 CT         1 BGM      0.424011
      3 H1'        -0.1540    2.5920    0.2480 H2         1 BGM      0.069041
      4 N9         -0.3850    0.5950    0.0270 N*         1 BGM     -0.070323
      5 C8         -0.9680   -0.6520   -0.0050 CK         1 BGM      0.107695
      6 BR6        -2.8260   -0.8850    0.0110 Br         1 BGM      0.004938
      7 N7         -0.1490   -1.6210   -0.0300 NB         1 BGM     -0.477056
      8 C5          1.0870   -1.0170   -0.0150 CB         1 BGM      0.050725
      9 C6          2.4040   -1.5880   -0.0400 C          1 BGM      0.524949
     10 O6          2.7660   -2.7230   -0.0860 O          1 BGM     -0.570335
     11 N1          3.3690   -0.5520   -0.0070 NA         1 BGM     -0.598872
     12 H1          4.3110   -0.8730   -0.0850 H          1 BGM      0.422933
     13 C2          3.1120    0.7810    0.0330 CA         1 BGM      0.730634
     14 N2          4.1940    1.6050    0.0090 N2         1 BGM     -0.978679
     15 H21         5.0480    1.2770    0.4020 H          1 BGM      0.418431
     16 H22         3.9840    2.5590    0.2030 H          1 BGM      0.418431
     17 N3          1.9250    1.2830    0.0540 NC         1 BGM     -0.757168
     18 C4          0.9510    0.3420    0.0240 CB         1 BGM      0.224640
     19 C2'        -1.6790    2.3000   -1.2220 CT         1 BGM     -0.337422
     20 H2'1       -2.5030    1.6330   -1.4400 HC         1 BGM      0.111716
     21 HHO4       -2.6130    1.5940    1.0780 HO         1 BGM      0.412390
     22 H2'2       -2.0610    3.3110   -1.1470 HC         1 BGM      0.111716
     23 H2'3       -0.9730    2.2520   -2.0420 HC         1 BGM      0.111716
@<TRIPOS>BOND
    1     1     2 1
    2     2     4 1
    3     2    19 1
    4     4     5 1
    5     4    18 1
    6     5     6 1
    7     5     7 1
    8     7     8 1
    9     8     9 1
   10     8    18 1
   11     9    10 1
   12     9    11 1
   13    11    13 1
   14    13    14 1
   15    13    17 1
   16    17    18 1
   17     1    21 1
   18     2     3 1
   19    11    12 1
   20    14    15 1
   21    14    16 1
   22    19    20 1
   23    19    22 1
   24    19    23 1
@<TRIPOS>SUBSTRUCTURE
      1 BGM               1 ****               0 ****  **** 
