@<TRIPOS>MOLECULE
modXNA-fragment:BIC:HEAD01:@N1:HEAD01STRIP:@C1',H1',O4',HHO4,C2',H2'1,H2'3,H2'2
   20    20     1     0     0
SMALL
USER_CHARGES


@<TRIPOS>ATOM
      1 O4'        -2.4400    0.5280    0.9210 OH         1 BIC     -0.725183
      2 C1'        -1.9020   -0.0410   -0.2480 CT         1 BIC      0.409122
      3 H1'        -2.0500    0.6390   -1.0760 H2         1 BIC     -0.007862
      4 N1         -0.4690   -0.1430   -0.0530 N*         1 BIC     -0.301847
      5 C6          0.1790   -1.3380    0.2200 CM         1 BIC      0.064513
      6 H6         -0.4470   -2.1890    0.3830 H4         1 BIC      0.169977
      7 C5          1.5020   -1.4120    0.2680 CM         1 BIC     -0.492690
      8 H5          2.0030   -2.3370    0.4730 HA         1 BIC      0.228862
      9 C4          2.3090   -0.2070    0.0200 CM         1 BIC      0.809738
     10 O4          3.5030   -0.2420   -0.0470 OS         1 BIC     -0.658588
     11 N3          1.5990    0.9780   -0.0990 NC         1 BIC     -0.879356
     12 C2          0.3230    0.9790   -0.1260 CA         1 BIC      0.702485
     13 N2         -0.3390    2.1710   -0.2790 N2         1 BIC     -1.011013
     14 C2'        -2.5820   -1.3620   -0.5750 CT         1 BIC     -0.295984
     15 H2'1       -2.1160   -1.8500   -1.4230 HC         1 BIC      0.109277
     16 HHO4       -3.3740    0.6590    0.8160 HO         1 BIC      0.442267
     17 H2'2       -2.5870   -2.0310    0.2760 HC         1 BIC      0.109277
     18 H2'3       -3.6150   -1.1580   -0.8380 HC         1 BIC      0.109277
     19 H21        -1.1400    2.2930    0.3030 H          1 BIC      0.419834
     20 H22         0.3000    2.9360   -0.2420 H          1 BIC      0.419834
@<TRIPOS>BOND
    1     1     2 1
    2     2     4 1
    3     2    14 1
    4     4     5 1
    5     4    12 1
    6     5     7 1
    7     7     9 1
    8     9    10 1
    9     9    11 1
   10    11    12 1
   11    12    13 1
   12     1    16 1
   13     2     3 1
   14     5     6 1
   15     7     8 1
   16    13    19 1
   17    13    20 1
   18    14    15 1
   19    14    17 1
   20    14    18 1
@<TRIPOS>SUBSTRUCTURE
      1 BIC               1 ****               0 ****  **** 
