@<TRIPOS>MOLECULE
modXNA-fragment:BII:HEAD01:@N9:HEAD01STRIP:@C1',H1',O4',HHO4,C2',H2'1,H2'3,H2'2
   21    22     1     0     0
SMALL
USER_CHARGES


@<TRIPOS>ATOM
      1 O4'        -3.2190   -0.4280    0.8950 OH         1 BII     -0.730606
      2 C1'        -2.3690    0.4320    0.2000 CT         1 BII      0.327897
      3 H1'        -2.1840    1.3340    0.7660 H2         1 BII      0.059368
      4 N9         -1.0990   -0.2610    0.1100 N*         1 BII     -0.103884
      5 C8         -0.8850   -1.6070   -0.0430 CK         1 BII      0.148651
      6 H8         -1.7020   -2.2960   -0.0590 H5         1 BII      0.169986
      7 N7          0.3560   -1.9170   -0.1330 NB         1 BII     -0.574205
      8 C5          1.0210   -0.7210   -0.0400 CB         1 BII      0.010803
      9 C6          2.4330   -0.4290   -0.0740 C          1 BII      0.580196
     10 O6          3.3750   -1.1520   -0.1930 O          1 BII     -0.590710
     11 N1          2.6230    0.9620    0.0640 NA         1 BII     -0.745514
     12 C2          1.6480    1.8900    0.2030 CA         1 BII      0.415226
     13 H2          1.9850    2.9070    0.2920 H5         1 BII      0.087213
     14 N3          0.3970    1.6390    0.2320 NC         1 BII     -0.725083
     15 C4          0.1330    0.3070    0.1100 CB         1 BII      0.314344
     16 C2'        -2.9150    0.7840   -1.1770 CT         1 BII     -0.376132
     17 H2'1       -3.0820   -0.1170   -1.7570 HC         1 BII      0.137293
     18 HHO4       -4.0980   -0.0760    0.8970 HO         1 BII      0.472462
     19 H2'2       -3.8570    1.3170   -1.0830 HC         1 BII      0.137293
     20 H2'3       -2.2190    1.4220   -1.7070 HC         1 BII      0.137293
     21 H1          3.5770    1.2550    0.0520 H          1 BII      0.399377
@<TRIPOS>BOND
    1     1     2 1
    2     2     4 1
    3     2    16 1
    4     4     5 1
    5     4    15 1
    6     5     7 1
    7     7     8 1
    8     8     9 1
    9     8    15 1
   10     9    10 1
   11     9    11 1
   12    11    12 1
   13    12    14 1
   14    14    15 1
   15     1    18 1
   16     2     3 1
   17     5     6 1
   18    11    21 1
   19    12    13 1
   20    16    17 1
   21    16    19 1
   22    16    20 1
@<TRIPOS>SUBSTRUCTURE
      1 BII               1 ****               0 ****  **** 
