@<TRIPOS>MOLECULE
modXNA-fragment:BNC:HEAD01:@N1:HEAD01STRIP:@C1',H1',O4',HHO4,C2',H2'1,H2'3,H2'2
   28    29     1     0     0
SMALL
USER_CHARGES


@<TRIPOS>ATOM
      1 O4'         2.4210   -2.0920   -1.2340 OH         1 BNC     -0.729080
      2 C1'         2.9330   -1.1610   -0.3290 CT         1 BNC      0.301887
      3 H1'         3.7860   -0.6510   -0.7450 H2         1 BNC      0.059796
      4 N1          1.8920   -0.1430   -0.1720 N*         1 BNC     -0.185194
      5 C6          0.5600   -0.4880   -0.1790 CM         1 BNC      0.067623
      6 H6          0.3780   -1.5270   -0.3540 H4         1 BNC      0.190615
      7 C5         -0.4450    0.3790   -0.0130 CM         1 BNC     -0.323588
      8 C8         -1.8640   -0.0560    0.0080 CA         1 BNC     -0.093155
      9 C4         -0.1020    1.7970    0.1540 C          1 BNC      0.693597
     10 O4         -0.8750    2.7010    0.2730 O          1 BNC     -0.615950
     11 N3          1.2620    2.0460    0.1650 NA         1 BNC     -0.761991
     12 H3          1.5350    2.9970    0.2990 H          1 BNC      0.400499
     13 C2          2.2910    1.1560    0.0310 C          1 BNC      0.602384
     14 O2          3.4390    1.4890    0.0900 O          1 BNC     -0.615173
     15 C2'         3.2980   -1.7980    1.0030 CT         1 BNC     -0.313273
     16 H2'1        3.6700   -1.0470    1.6880 HC         1 BNC      0.117789
     17 HHO4        3.0590   -2.7790   -1.3770 HO         1 BNC      0.475710
     18 H2'2        4.0780   -2.5410    0.8620 HC         1 BNC      0.117789
     19 H2'3        2.4350   -2.2870    1.4420 HC         1 BNC      0.117789
     20 C20        -2.8630    0.6260   -0.6800 CA         1 BNC      0.092870
     21 C21        -4.1550    0.1400   -0.6430 CA         1 BNC     -0.370969
     22 C22        -4.4100   -1.0130    0.0810 CA         1 BNC      0.325987
     23 N23        -3.4790   -1.6640    0.7510 NC         1 BNC     -0.664413
     24 C24        -2.2490   -1.1870    0.7190 CA         1 BNC      0.294872
     25 H20        -2.6320    1.5200   -1.2260 HA         1 BNC      0.135140
     26 H21        -4.9490    0.6410   -1.1650 HA         1 BNC      0.191826
     27 H22        -5.4040   -1.4210    0.1260 H4         1 BNC      0.046260
     28 H24        -1.5220   -1.7260    1.3020 H4         1 BNC      0.036701
@<TRIPOS>BOND
    1     1     2 1
    2     2     4 1
    3     2    15 1
    4     4     5 1
    5     4    13 1
    6     5     7 1
    7     7     8 1
    8     7     9 1
    9     8    20 1
   10     8    24 1
   11     9    10 1
   12     9    11 1
   13    11    13 1
   14    13    14 1
   15    20    21 1
   16    21    22 1
   17    22    23 1
   18    23    24 1
   19     1    17 1
   20     2     3 1
   21     5     6 1
   22    11    12 1
   23    15    16 1
   24    15    18 1
   25    15    19 1
   26    20    25 1
   27    21    26 1
   28    22    27 1
   29    24    28 1
@<TRIPOS>SUBSTRUCTURE
      1 BNC               1 ****               0 ****  **** 
