@<TRIPOS>MOLECULE
modXNA-fragment:BOC:HEAD01:@N1:HEAD01STRIP:@C1',H1',C2',H2'1,H2'2,H2'3,O4',HHO4
   31    32     1     0     0
SMALL
USER_CHARGES


@<TRIPOS>ATOM
      1 C1'        -3.0060    1.4540    0.0810 CT         1 BOC      0.313590
      2 C2'        -3.3610    1.6830    1.5420 CT         1 BOC     -0.283630
      3 O4'        -2.3230    2.5440   -0.4670 OH         1 BOC     -0.723351
      4 O4          0.2000   -2.9290   -0.4220 O          1 BOC     -0.597415
      5 C4         -0.4260   -1.9170   -0.3160 C          1 BOC      0.664856
      6 N3         -1.8070   -1.9460   -0.4650 NA         1 BOC     -0.768395
      7 C2         -2.6990   -0.9170   -0.3520 C          1 BOC      0.593489
      8 O2         -3.8810   -1.0770   -0.4650 O          1 BOC     -0.617709
      9 N1         -2.1240    0.3010   -0.0870 N*         1 BOC     -0.131400
     10 C6         -0.7620    0.4270    0.0770 CM         1 BOC     -0.036132
     11 C5          0.1110   -0.5800   -0.0290 CM         1 BOC     -0.235877
     12 H1'        -3.8940    1.2340   -0.4890 H2         1 BOC      0.044864
     13 H2'1       -3.8730    0.8180    1.9430 HC         1 BOC      0.105048
     14 H2'2       -4.0210    2.5400    1.6380 HC         1 BOC      0.105048
     15 H3         -2.2080   -2.8390   -0.6580 H          1 BOC      0.401161
     16 H6         -0.4380    1.4230    0.2930 H4         1 BOC      0.193337
     17 C17         1.5750   -0.3600    0.1260 CA         1 BOC      0.149988
     18 H2'3       -2.4670    1.8720    2.1280 HC         1 BOC      0.105048
     19 HHO4       -2.8700    3.3150   -0.4190 HO         1 BOC      0.467191
     20 C20         2.1740    0.7320   -0.4910 CA         1 BOC     -0.287929
     21 C21         3.5300    1.0010   -0.3250 CA         1 BOC      0.344444
     22 C22         4.2910    0.1470    0.4640 CA         1 BOC     -0.265872
     23 C23         3.6980   -0.9490    1.0650 CA         1 BOC     -0.055684
     24 C24         2.3500   -1.2130    0.9070 CA         1 BOC     -0.211882
     25 H20         1.5910    1.3670   -1.1360 HA         1 BOC      0.194544
     26 H22         5.3440    0.3310    0.5910 HA         1 BOC      0.182394
     27 H23         4.2990   -1.6060    1.6680 HA         1 BOC      0.142806
     28 H24         1.9080   -2.0710    1.3720 HA         1 BOC      0.164083
     29 N12         4.1220    2.0760   -0.9940 N2         1 BOC     -0.914307
     30 H31         3.5010    2.8280   -1.1980 H          1 BOC      0.369998
     31 H32         4.9580    2.4140   -0.5670 H          1 BOC      0.369998
@<TRIPOS>BOND
    1     1     2 1
    2     1     3 1
    3     1     9 1
    4     4     5 1
    5     5     6 1
    6     5    11 1
    7     6     7 1
    8     7     8 1
    9     7     9 1
   10     9    10 1
   11    10    11 1
   12    11    17 1
   13    17    20 1
   14    17    24 1
   15    20    21 1
   16    21    22 1
   17    21    29 1
   18    22    23 1
   19    23    24 1
   20     1    12 1
   21     2    13 1
   22     2    14 1
   23     2    18 1
   24     3    19 1
   25     6    15 1
   26    10    16 1
   27    20    25 1
   28    22    26 1
   29    23    27 1
   30    24    28 1
   31    29    30 1
   32    29    31 1
@<TRIPOS>SUBSTRUCTURE
      1 BOC               1 ****               0 ****  **** 
