@<TRIPOS>MOLECULE
modXNA-fragment:BPC:HEAD01:@N1:HEAD01STRIP:@C1',H1',O4',HHO4,C2',H2'1,H2'3,H2'2
   40    40     1     0     0
SMALL
USER_CHARGES


@<TRIPOS>ATOM
      1 O4'         2.6470   -2.5110    0.9470 OH         1 BPC     -0.704694
      2 C1'         3.1330   -1.9510   -0.2510 CT         1 BPC      0.485566
      3 H1'         2.3700   -2.0330   -1.0130 H2         1 BPC     -0.057828
      4 N1          3.3350   -0.5380   -0.0210 N*         1 BPC     -0.468853
      5 C6          4.5960    0.0260    0.1670 CM         1 BPC      0.062288
      6 H6          5.4050   -0.6610    0.2930 H4         1 BPC      0.166618
      7 C5          4.7730    1.3360    0.1850 CM         1 BPC     -0.474178
      8 H5          5.7420    1.7700    0.3280 HA         1 BPC      0.236701
      9 C4          3.6170    2.2210    0.0090 CM         1 BPC      0.813963
     10 N4          3.7790    3.4670   -0.1000 N2         1 BPC     -0.981610
     11 H4          2.8850    3.9160   -0.2010 H          1 BPC      0.392905
     12 N3          2.3670    1.6060    0.0120 NC         1 BPC     -0.993994
     13 C2          2.2620    0.3350    0.0010 CA         1 BPC      0.797821
     14 N2          1.0290   -0.2540   -0.0180 N2         1 BPC     -0.763485
     15 C2'         4.3740   -2.6890   -0.7290 CT         1 BPC     -0.296960
     16 H2'1        5.1170   -2.7700    0.0540 HC         1 BPC      0.104835
     17 HHO4        2.4540   -3.4310    0.8170 HO         1 BPC      0.421231
     18 H2'2        4.0860   -3.6960   -1.0130 HC         1 BPC      0.104835
     19 H2'3        4.8100   -2.2120   -1.5980 HC         1 BPC      0.104835
     20 C10        -0.1590    0.5810    0.0710 CT         1 BPC      0.161772
     21 C10        -1.4080   -0.2840   -0.0660 CT         1 BPC     -0.030109
     22 1H10       -0.1160    1.3110   -0.7250 H1         1 BPC      0.030561
     23 2H10       -0.1770    1.1340    1.0060 H1         1 BPC      0.030561
     24 C12        -2.6940    0.5380    0.0150 CT         1 BPC     -0.046637
     25 1H10       -1.4170   -1.0390    0.7200 HC         1 BPC      0.014014
     26 2H10       -1.3670   -0.8180   -1.0110 HC         1 BPC      0.014014
     27 C14        -3.9420   -0.3280   -0.1240 CT         1 BPC      0.265462
     28 1H12       -2.6840    1.2950   -0.7680 HC         1 BPC      0.015963
     29 2H12       -2.7370    1.0700    0.9620 HC         1 BPC      0.015963
     30 N16        -5.1340    0.4940   -0.0280 NT         1 BPC     -0.883144
     31 1H14       -3.9840   -1.0610    0.6680 H1         1 BPC     -0.000826
     32 2H14       -3.9190   -0.8800   -1.0610 H1         1 BPC     -0.000826
     33 C18        -6.3700   -0.1150   -0.0050 CM         1 BPC      0.783041
     34 N19        -7.4050    0.8110   -0.0960 NT         1 BPC     -1.052826
     35 N21        -6.4850   -1.3690    0.0740 N2         1 BPC     -0.971023
     36 1H19       -7.2400    1.6600    0.4020 H          1 BPC      0.399352
     37 H2          0.9810   -1.0970    0.5130 H          1 BPC      0.340764
     38 H16        -5.1150    1.3100   -0.6030 H          1 BPC      0.395558
     39 2H19       -8.3080    0.4380    0.0980 H          1 BPC      0.399352
     40 H21        -7.4430   -1.6510    0.1660 H          1 BPC      0.372590
@<TRIPOS>BOND
    1     1     2 1
    2     2     4 1
    3     2    15 1
    4     4     5 1
    5     4    13 1
    6     5     7 1
    7     7     9 1
    8     9    10 1
    9     9    12 1
   10    12    13 1
   11    13    14 1
   12    14    20 1
   13    20    21 1
   14    21    24 1
   15    24    27 1
   16    27    30 1
   17    30    33 1
   18    33    34 1
   19    33    35 1
   20     1    17 1
   21     2     3 1
   22     5     6 1
   23     7     8 1
   24    10    11 1
   25    14    37 1
   26    15    16 1
   27    15    18 1
   28    15    19 1
   29    20    22 1
   30    20    23 1
   31    21    25 1
   32    21    26 1
   33    24    28 1
   34    24    29 1
   35    27    31 1
   36    27    32 1
   37    30    38 1
   38    34    36 1
   39    34    39 1
   40    35    40 1
@<TRIPOS>SUBSTRUCTURE
      1 BPC               1 ****               0 ****  **** 
