@<TRIPOS>MOLECULE
modXNA-fragment:BQG:HEAD01:@N9:HEAD01STRIP:@C1',H1',O4',HHO4,C2',H2'1,H2'3,H2'2
   42    44     1     0     0
SMALL
USER_CHARGES


@<TRIPOS>ATOM
      1 O4'         1.3180    3.2700    1.0520 OH         1 BQG     -0.737891
      2 C1'         2.2540    2.5840    0.2710 CT         1 BQG      0.429949
      3 H1'         3.0990    2.2770    0.8700 H2         1 BQG     -0.011639
      4 N9          1.6130    1.3710   -0.1690 N*         1 BQG     -0.094389
      5 C8          0.3800    1.2930   -0.8160 CA         1 BQG     -0.230768
      6 H8         -0.1840    2.1760   -1.0130 H4         1 BQG      0.225186
      7 C7          0.0800    0.0050   -1.0700 C*         1 BQG     -0.061755
      8 C5          1.1860   -0.7640   -0.5600 CB         1 BQG     -0.394938
      9 C6          1.4900   -2.1600   -0.5230 C          1 BQG      0.683841
     10 O6          0.8660   -3.0950   -0.9460 O          1 BQG     -0.659139
     11 N1          2.7250   -2.3930    0.1130 NA         1 BQG     -0.609760
     12 H1          3.0230   -3.3450    0.1060 H          1 BQG      0.410829
     13 C2          3.5400   -1.4320    0.6210 CA         1 BQG      0.730447
     14 N2          4.7200   -1.8670    1.1540 N2         1 BQG     -0.986379
     15 H21         5.2070   -1.1600    1.6600 H          1 BQG      0.412672
     16 H22         4.7190   -2.7570    1.6030 H          1 BQG      0.412672
     17 N3          3.2740   -0.1750    0.5890 NC         1 BQG     -0.777583
     18 C4          2.0900    0.1220   -0.0140 CB         1 BQG      0.409822
     19 C2'         2.7290    3.4320   -0.9030 CT         1 BQG     -0.328039
     20 H2'1        3.4370    2.8760   -1.5070 HC         1 BQG      0.112145
     21 HHO4        1.6760    4.1070    1.3140 HO         1 BQG      0.451208
     22 H2'2        3.2240    4.3300   -0.5430 HC         1 BQG      0.112145
     23 H2'3        1.8930    3.7280   -1.5250 HC         1 BQG      0.112145
     24 C10        -1.1320   -0.5420   -1.7770 CT         1 BQG      0.414252
     25 N10        -2.2140    0.4310   -1.8770 NT         1 BQG     -0.991161
     26 1H10       -0.8400   -0.8280   -2.7820 H1         1 BQG     -0.029098
     27 2H10       -1.4440   -1.4630   -1.2970 H1         1 BQG     -0.029098
     28 H10        -2.5720    0.4420   -2.8090 H          1 BQG      0.390856
     29 C13        -3.3390    0.3510   -0.9490 CT         1 BQG      0.367555
     30 C31        -3.9960   -1.0160   -0.8010 CM         1 BQG     -0.356008
     31 C32        -3.7530   -1.5580    0.3780 CM         1 BQG     -0.090353
     32 C33        -2.8630   -0.6760    1.2310 CT         1 BQG      0.340080
     33 C34        -3.0020    0.6880    0.5200 CT         1 BQG     -0.089573
     34 H13        -4.0450    1.0930   -1.3060 H1         1 BQG      0.030994
     35 7O30       -3.2090   -0.6330    2.5820 OH         1 BQG     -0.746012
     36 H33        -1.8410   -1.0320    1.1790 H1         1 BQG      0.039748
     37 9O30       -4.0690    1.4050    1.1130 OH         1 BQG     -0.639004
     38 H34        -2.1330    1.3150    0.6220 H1         1 BQG      0.207294
     39 H31        -4.5560   -1.4780   -1.5960 HA         1 BQG      0.191238
     40 H32        -4.0880   -2.5230    0.7140 HA         1 BQG      0.139249
     41 0HO3       -3.7380    0.1430    2.7220 HO         1 BQG      0.450027
     42 0HO3       -4.8900    0.9980    0.8660 HO         1 BQG      0.404625
@<TRIPOS>BOND
    1     1     2 1
    2     2     4 1
    3     2    19 1
    4     4     5 1
    5     4    18 1
    6     5     7 1
    7     7     8 1
    8     7    24 1
    9     8     9 1
   10     8    18 1
   11     9    10 1
   12     9    11 1
   13    11    13 1
   14    13    14 1
   15    13    17 1
   16    17    18 1
   17    24    25 1
   18    25    29 1
   19    29    30 1
   20    29    33 1
   21    30    31 1
   22    31    32 1
   23    32    33 1
   24    32    35 1
   25    33    37 1
   26     1    21 1
   27     2     3 1
   28     5     6 1
   29    11    12 1
   30    14    15 1
   31    14    16 1
   32    19    20 1
   33    19    22 1
   34    19    23 1
   35    24    26 1
   36    24    27 1
   37    25    28 1
   38    29    34 1
   39    30    39 1
   40    31    40 1
   41    32    36 1
   42    33    38 1
   43    35    41 1
   44    37    42 1
@<TRIPOS>SUBSTRUCTURE
      1 BQG               1 ****               0 ****  **** 
