@<TRIPOS>MOLECULE
modXNA-fragment:BRF:HEAD01:@C4:HEAD01STRIP:@C1',H1',O4','HO4,C2',1H2',2H2',3H2'
   22    22     1     0     0
SMALL
USER_CHARGES


@<TRIPOS>ATOM
      1 O4'        -2.4430   -1.6340    0.6370 OH         1 BRF     -0.760180
      2 C1'        -2.2540   -0.2960    0.2460 CT         1 BRF      0.428329
      3 H1'        -2.6630    0.3640    1.0050 H1         1 BRF     -0.023222
      4 C4         -0.7600   -0.0480    0.1610 CA         1 BRF     -0.137890
      5 C6          0.1660   -1.0790    0.0550 CA         1 BRF     -0.179545
      6 C5          1.5320   -0.8520   -0.0420 CA         1 BRF      0.020784
      7 C8          1.9480    0.4670   -0.0270 CA         1 BRF      0.250748
      8 C13         1.0790    1.5280    0.0780 CA         1 BRF     -0.356293
      9 C2         -0.2640    1.2390    0.1700 CA         1 BRF      0.263984
     10 C2'        -2.9560   -0.0160   -1.0820 CT         1 BRF     -0.380410
     11 1H2'       -2.5650   -0.6690   -1.8550 HC         1 BRF      0.125103
     12 'HO4       -3.3710   -1.8100    0.7050 HO         1 BRF      0.449939
     13 2H2'       -4.0250   -0.1930   -0.9910 HC         1 BRF      0.125103
     14 3H2'       -2.8140    1.0140   -1.3870 HC         1 BRF      0.125103
     15 H6         -0.1970   -2.0890    0.0600 HA         1 BRF      0.231947
     16 C7          2.5370   -1.9720   -0.1540 CT         1 BRF     -0.182053
     17 F8          3.2510    0.7270   -0.1170 F          1 BRF     -0.197506
     18 H13         1.4330    2.5410    0.0900 HA         1 BRF      0.240048
     19 F10        -1.1200    2.2590    0.2720 F          1 BRF     -0.206135
     20 H71         2.0380   -2.9330   -0.1470 HC         1 BRF      0.082716
     21 H72         3.2420   -1.9520    0.6710 HC         1 BRF      0.082716
     22 H73         3.1110   -1.8960   -1.0720 HC         1 BRF      0.082716
@<TRIPOS>BOND
    1     1     2 1
    2     2     4 1
    3     2    10 1
    4     4     5 1
    5     4     9 1
    6     5     6 1
    7     6     7 1
    8     6    16 1
    9     7     8 1
   10     7    17 1
   11     8     9 1
   12     9    19 1
   13     1    12 1
   14     2     3 1
   15     5    15 1
   16     8    18 1
   17    10    11 1
   18    10    13 1
   19    10    14 1
   20    16    20 1
   21    16    21 1
   22    16    22 1
@<TRIPOS>SUBSTRUCTURE
      1 BRF               1 ****               0 ****  **** 
