@<TRIPOS>MOLECULE
modXNA-fragment:BRG:HEAD01:@N9:HEAD01STRIP:@C1',H1',C2',H2'1,H2'2,H2'3,O4',HHO4
   32    33     1     0     0
SMALL
USER_CHARGES


@<TRIPOS>ATOM
      1 C1'        -1.2580   -1.9420    0.0030 CT         1 BRG      0.357067
      2 C2'        -1.7730   -2.5140    1.3170 CT         1 BRG     -0.354169
      3 O4'        -1.9030   -2.4590   -1.1070 OH         1 BRG     -0.699743
      4 N2          3.3490    0.6390    0.0490 N          1 BRG     -0.803690
      5 O6          0.1900    3.8640    0.0170 O          1 BRG     -0.581706
      6 C6          0.3510    2.6810    0.0180 C          1 BRG      0.538259
      7 C5         -0.6090    1.6080    0.0060 CB         1 BRG      0.049981
      8 N7         -1.9840    1.6380   -0.0150 NB         1 BRG     -0.480878
      9 C8         -2.3210    0.4140   -0.0130 CK         1 BRG      0.106806
     10 N9         -1.2700   -0.4730    0.0070 N*         1 BRG     -0.001766
     11 C4         -0.1600    0.3190    0.0130 CB         1 BRG      0.191075
     12 N3          1.1170   -0.1260    0.0350 NC         1 BRG     -0.815224
     13 C2          1.9930    0.8300    0.0360 CQ         1 BRG      0.804959
     14 N1          1.6490    2.1430    0.0320 NA         1 BRG     -0.610899
     15 H1'        -0.2200   -2.1940   -0.1170 H2         1 BRG      0.106671
     16 H2'1       -1.6930   -3.5950    1.2840 HC         1 BRG      0.119081
     17 H2'2       -1.1790   -2.1440    2.1440 HC         1 BRG      0.119081
     18 C18         3.7680   -0.5690   -0.0670 CM         1 BRG      0.348470
     19 BR         -4.1060   -0.1540   -0.0620 Br         1 BRG     -0.005344
     20 H1          2.3950    2.8040    0.0360 H          1 BRG      0.418656
     21 H2'3       -2.8070   -2.2480    1.4930 HC         1 BRG      0.119081
     22 HHO4       -2.8400   -2.3290   -1.0380 HO         1 BRG      0.413179
     23 N8          5.0510   -0.9060   -0.0410 NT         1 BRG     -0.051471
     24 H18         3.0840   -1.3920   -0.1940 HA         1 BRG      0.065008
     25 C3          6.1050    0.0790    0.1190 CT         1 BRG     -0.187609
     26 C9          5.4720   -2.2780   -0.2320 CT         1 BRG     -0.187609
     27 H81         6.7530   -0.2120    0.9390 H1         1 BRG      0.114860
     28 H82         5.6700    1.0400    0.3280 H1         1 BRG      0.114860
     29 H83         6.6990    0.1410   -0.7870 H1         1 BRG      0.114860
     30 H91         6.0560   -2.6140    0.6170 H1         1 BRG      0.114860
     31 H92         6.0810   -2.3670   -1.1260 H1         1 BRG      0.114860
     32 H93         4.6110   -2.9230   -0.3360 H1         1 BRG      0.114860
@<TRIPOS>BOND
    1     1     2 1
    2     1     3 1
    3     1    10 1
    4     4    13 1
    5     4    18 1
    6     5     6 1
    7     6     7 1
    8     6    14 1
    9     7     8 1
   10     7    11 1
   11     8     9 1
   12     9    10 1
   13     9    19 1
   14    10    11 1
   15    11    12 1
   16    12    13 1
   17    13    14 1
   18    18    23 1
   19    23    25 1
   20    23    26 1
   21     1    15 1
   22     2    16 1
   23     2    17 1
   24     2    21 1
   25     3    22 1
   26    14    20 1
   27    18    24 1
   28    25    27 1
   29    25    28 1
   30    25    29 1
   31    26    30 1
   32    26    31 1
   33    26    32 1
@<TRIPOS>SUBSTRUCTURE
      1 BRG               1 ****               0 ****  **** 
