@<TRIPOS>MOLECULE
modXNA-fragment:BSG:HEAD01:@N9:HEAD01STRIP:@C1',H1',C2',H2'1,H2'2,H2'3,O4',HHO4
   42    43     1     0     0
SMALL
USER_CHARGES


@<TRIPOS>ATOM
      1 C1'         2.4880   -2.2670    0.1470 CT         1 BSG      0.399372
      2 C2'         3.4690   -2.1350   -1.0080 CT         1 BSG     -0.363800
      3 O4'         3.0470   -1.8620    1.3660 OH         1 BSG     -0.709790
      4 N5         -3.2590   -0.3890   -0.2000 N*         1 BSG     -0.596835
      5 C6         -2.2240   -1.2890   -0.0570 CQ         1 BSG      0.590742
      6 C5         -0.8620   -0.9780   -0.0700 CB         1 BSG     -0.091130
      7 N7         -0.1480    0.2040   -0.1920 NB         1 BSG     -0.691690
      8 C8          1.0930   -0.1460   -0.1610 CK         1 BSG      0.528697
      9 N9          1.2730   -1.5090   -0.0460 N*         1 BSG     -0.244053
     10 C4          0.0130   -2.0450    0.0280 CB         1 BSG      0.375154
     11 N3         -0.3160   -3.3150    0.1420 NC         1 BSG     -0.781802
     12 C2         -1.6250   -3.4870    0.1480 CQ         1 BSG      0.500558
     13 N1         -2.5670   -2.5710    0.0500 NC         1 BSG     -0.629598
     14 H1'         2.1530   -3.2930    0.2180 H2         1 BSG      0.029871
     15 H2'1        4.3220   -2.7870   -0.8340 HC         1 BSG      0.121896
     16 H2'2        2.9990   -2.4420   -1.9350 HC         1 BSG      0.121896
     17 N19         2.1900    0.6730   -0.2590 N          1 BSG     -0.591063
     18 H2'3        3.8180   -1.1180   -1.1010 HC         1 BSG      0.121896
     19 HHO4        3.8050   -2.3980    1.5530 HO         1 BSG      0.433595
     20 C16         2.0110    1.8970    0.0420 CM         1 BSG      0.284231
     21 H2         -1.9670   -4.5030    0.2400 H5         1 BSG      0.033860
     22 C10        -3.1160    0.7990    0.2230 CM         1 BSG      0.253113
     23 H10        -2.2250    1.1440    0.7240 HA         1 BSG      0.083549
     24 N12        -4.0780    1.7330    0.1160 NT         1 BSG     -0.082744
     25 C12        -5.3030    1.4510   -0.6020 CT         1 BSG     -0.171924
     26 C13        -3.8030    3.1140    0.4280 CT         1 BSG     -0.171924
     27 H121       -6.1180    1.9990   -0.1430 H1         1 BSG      0.100920
     28 H122       -5.5080    0.3950   -0.5580 H1         1 BSG      0.100920
     29 H123       -5.2280    1.7510   -1.6450 H1         1 BSG      0.100920
     30 H131       -4.6120    3.5340    1.0160 H1         1 BSG      0.100920
     31 H132       -3.6910    3.7140   -0.4730 H1         1 BSG      0.100920
     32 H133       -2.8900    3.1910    1.0040 H1         1 BSG      0.100920
     33 N15         2.9530    2.8360   -0.1060 NT         1 BSG     -0.113316
     34 H16         1.0700    2.2550    0.4300 HA         1 BSG      0.093604
     35 C17         2.7950    4.1410    0.4980 CT         1 BSG     -0.193333
     36 C18         4.2740    2.4770   -0.5810 CT         1 BSG     -0.193333
     37 H171        3.0890    4.9130   -0.2030 H1         1 BSG      0.116017
     38 H172        3.4020    4.2410    1.3940 H1         1 BSG      0.116017
     39 H173        1.7600    4.3020    0.7660 H1         1 BSG      0.116017
     40 H181        4.7450    3.3560   -1.0020 H1         1 BSG      0.116017
     41 H182        4.1910    1.7180   -1.3420 H1         1 BSG      0.116017
     42 H183        4.8960    2.0960    0.2240 H1         1 BSG      0.116017
@<TRIPOS>BOND
    1     1     2 1
    2     1     3 1
    3     1     9 1
    4     4     5 1
    5     4    22 1
    6     5     6 1
    7     5    13 1
    8     6     7 1
    9     6    10 1
   10     7     8 1
   11     8     9 1
   12     8    17 1
   13     9    10 1
   14    10    11 1
   15    11    12 1
   16    12    13 1
   17    17    20 1
   18    20    33 1
   19    22    24 1
   20    24    25 1
   21    24    26 1
   22    33    35 1
   23    33    36 1
   24     1    14 1
   25     2    15 1
   26     2    16 1
   27     2    18 1
   28     3    19 1
   29    12    21 1
   30    20    34 1
   31    22    23 1
   32    25    27 1
   33    25    28 1
   34    25    29 1
   35    26    30 1
   36    26    31 1
   37    26    32 1
   38    35    37 1
   39    35    38 1
   40    35    39 1
   41    36    40 1
   42    36    41 1
   43    36    42 1
@<TRIPOS>SUBSTRUCTURE
      1 BSG               1 ****               0 ****  **** 
