@<TRIPOS>MOLECULE
modXNA-fragment:BTG:HEAD01:@N9:HEAD01STRIP:@C1',H1',C2',H2'1,H2'2,H2'3,O4',HHO4
   33    34     1     0     0
SMALL
USER_CHARGES


@<TRIPOS>ATOM
      1 C1'         2.1750   -2.0870    0.0510 CT         1 BTG      0.300555
      2 C2'         2.5260   -2.6410   -1.3250 CT         1 BTG     -0.325962
      3 O4'         3.0370   -2.5820    1.0360 OH         1 BTG     -0.723594
      4 C6          0.8350    2.5990   -0.0080 C          1 BTG      0.641036
      5 C5          1.7530    1.4990    0.0410 CB         1 BTG     -0.247250
      6 C7          3.1800    1.3920    0.0820 C*         1 BTG     -0.180840
      7 C8          3.4640    0.0760    0.1120 CA         1 BTG     -0.249453
      8 N9          2.2800   -0.6510    0.0950 N*         1 BTG      0.126582
      9 C4          1.2460    0.2190    0.0510 CB         1 BTG      0.268858
     10 N3         -0.0630   -0.1500    0.0070 NC         1 BTG     -0.822866
     11 C2         -0.8890    0.8410   -0.0280 CQ         1 BTG      0.815396
     12 N1         -0.4880    2.1380   -0.0380 NA         1 BTG     -0.623780
     13 H1'         1.1480   -2.3230    0.2900 H2         1 BTG      0.045430
     14 H2'1        2.4210   -3.7230   -1.3380 HC         1 BTG      0.113420
     15 H2'2        1.8610   -2.2300   -2.0760 HC         1 BTG      0.113420
     16 H2'3        3.5470   -2.3910   -1.5870 HC         1 BTG      0.113420
     17 HHO4        3.0950   -3.5240    0.9610 HO         1 BTG      0.456724
     18 N21        -2.2580    0.7130   -0.0680 N          1 BTG     -0.784677
     19 H7          3.8820    2.2000    0.1000 HA         1 BTG      0.205269
     20 H8          4.4010   -0.4320    0.1760 H4         1 BTG      0.239693
     21 H1         -1.2000    2.8350   -0.0700 H          1 BTG      0.404178
     22 O10         1.0590    3.7780   -0.0250 O          1 BTG     -0.635550
     23 C11        -2.7350   -0.4660    0.0750 CM         1 BTG      0.308849
     24 N12        -4.0350   -0.7450    0.0170 NT         1 BTG     -0.043860
     25 H111       -2.0960   -1.3150    0.2500 HA         1 BTG      0.077319
     26 C14        -5.0310    0.2870   -0.1990 CT         1 BTG     -0.170172
     27 C15        -4.5290   -2.0780    0.2840 CT         1 BTG     -0.170172
     28 H141       -5.7330   -0.0420   -0.9570 H1         1 BTG      0.105352
     29 H142       -4.5470    1.1910   -0.5240 H1         1 BTG      0.105352
     30 H143       -5.5790    0.4840    0.7180 H1         1 BTG      0.105352
     31 H151       -5.1370   -2.4270   -0.5430 H1         1 BTG      0.105352
     32 H152       -5.1360   -2.0900    1.1840 H1         1 BTG      0.105352
     33 H153       -3.7030   -2.7630    0.4160 H1         1 BTG      0.105352
@<TRIPOS>BOND
    1     1     2 1
    2     1     3 1
    3     1     8 1
    4     4     5 1
    5     4    12 1
    6     4    22 1
    7     5     6 1
    8     5     9 1
    9     6     7 1
   10     7     8 1
   11     8     9 1
   12     9    10 1
   13    10    11 1
   14    11    12 1
   15    11    18 1
   16    18    23 1
   17    23    24 1
   18    24    26 1
   19    24    27 1
   20     1    13 1
   21     2    14 1
   22     2    15 1
   23     2    16 1
   24     3    17 1
   25     6    19 1
   26     7    20 1
   27    12    21 1
   28    23    25 1
   29    26    28 1
   30    26    29 1
   31    26    30 1
   32    27    31 1
   33    27    32 1
   34    27    33 1
@<TRIPOS>SUBSTRUCTURE
      1 BTG               1 ****               0 ****  **** 
