@<TRIPOS>MOLECULE
modXNA-fragment:BTH:HEAD01:@N9:HEAD01STRIP:@C1',H1',C2',H2'1,H2'2,H2'3,O4',HHO4
   32    33     1     0     0
SMALL
USER_CHARGES


@<TRIPOS>ATOM
      1 C1'         2.2900   -2.0610    0.0270 CT         1 BTH      0.316422
      2 C2'         3.0570   -2.6370   -1.1530 CT         1 BTH     -0.322490
      3 O4'         2.8120   -2.4860    1.2420 OH         1 BTH     -0.693332
      4 C6          0.7820    2.5980    0.0140 C          1 BTH      0.666019
      5 C5          1.7020    1.4970    0.0080 CB         1 BTH     -0.435336
      6 C7          3.1070    1.3310    0.0330 CV         1 BTH      0.182003
      7 N7          3.4260    0.0790    0.0120 NB         1 BTH     -0.552232
      8 N9          2.2560   -0.6130   -0.0350 N*         1 BTH      0.076363
      9 C4          1.2040    0.2080   -0.0230 CB         1 BTH      0.450533
     10 N3         -0.0960   -0.1710   -0.0500 NC         1 BTH     -0.967523
     11 C2         -0.9290    0.8220   -0.0350 CQ         1 BTH      0.897637
     12 N1         -0.5360    2.1230   -0.0110 NA         1 BTH     -0.633747
     13 H1'         1.2630   -2.3840    0.0060 H2         1 BTH      0.103130
     14 H2'1        3.0560   -3.7190   -1.0850 HC         1 BTH      0.115969
     15 H2'2        2.5970   -2.3420   -2.0900 HC         1 BTH      0.115969
     16 H2'3        4.0820   -2.2870   -1.1510 HC         1 BTH      0.115969
     17 HHO4        3.6810   -2.1180    1.3450 HO         1 BTH      0.446410
     18 N21        -2.2910    0.6870   -0.0490 N*         1 BTH     -0.839048
     19 H7          3.8640    2.0880    0.0660 H4         1 BTH      0.135152
     20 H1         -1.2580    2.8120   -0.0030 H          1 BTH      0.407470
     21 O10         1.0020    3.7750    0.0360 O          1 BTH     -0.624754
     22 C11        -2.7540   -0.5100    0.0260 CM         1 BTH      0.335624
     23 N12        -4.0480   -0.7960    0.0000 NT         1 BTH     -0.041936
     24 H111       -2.1000   -1.3600    0.1170 HA         1 BTH      0.090601
     25 C14        -5.0670    0.2310   -0.1170 CT         1 BTH     -0.185242
     26 C15        -4.5190   -2.1590    0.1300 CT         1 BTH     -0.185242
     27 H141       -5.7080    0.0150   -0.9640 H1         1 BTH      0.113768
     28 H142       -4.5960    1.1890   -0.2580 H1         1 BTH      0.113768
     29 H143       -5.6750    0.2570    0.7810 H1         1 BTH      0.113768
     30 H151       -5.1110   -2.4370   -0.7350 H1         1 BTH      0.113768
     31 H152       -5.1340   -2.2650    1.0170 H1         1 BTH      0.113768
     32 H153       -3.6820   -2.8380    0.2070 H1         1 BTH      0.113768
@<TRIPOS>BOND
    1     1     2 1
    2     1     3 1
    3     1     8 1
    4     4     5 1
    5     4    12 1
    6     4    21 1
    7     5     6 1
    8     5     9 1
    9     6     7 1
   10     7     8 1
   11     8     9 1
   12     9    10 1
   13    10    11 1
   14    11    12 1
   15    11    18 1
   16    18    22 1
   17    22    23 1
   18    23    25 1
   19    23    26 1
   20     1    13 1
   21     2    14 1
   22     2    15 1
   23     2    16 1
   24     3    17 1
   25     6    19 1
   26    12    20 1
   27    22    24 1
   28    25    27 1
   29    25    28 1
   30    25    29 1
   31    26    30 1
   32    26    31 1
   33    26    32 1
@<TRIPOS>SUBSTRUCTURE
      1 BTH               1 ****               0 ****  **** 
