@<TRIPOS>MOLECULE
modXNA-fragment:BUG:HEAD01:@N9:HEAD01STRIP:@C1',H1',C2',H2'1,H2'2,H2'3,O4',HHO4
   43    44     1     0     0
SMALL
USER_CHARGES


@<TRIPOS>ATOM
      1 C1'        -0.7830   -2.0580   -0.0170 CT         1 BUG      0.417756
      2 C2'        -1.1530   -2.5860    1.3630 CT         1 BUG     -0.392847
      3 O4'        -1.5820   -2.5910   -1.0140 OH         1 BUG     -0.722667
      4 C6          0.6900    2.6070   -0.0200 C          1 BUG      0.618687
      5 C5         -0.2260    1.5030   -0.0390 CB         1 BUG     -0.066179
      6 N6         -1.6030    1.4760   -0.0780 NB         1 BUG     -0.647624
      7 C8         -1.9060    0.2280   -0.0770 CK         1 BUG      0.529680
      8 N9         -0.8050   -0.5960   -0.0480 N*         1 BUG     -0.300060
      9 C4          0.2760    0.2340   -0.0270 CB         1 BUG      0.256618
     10 N3          1.5720   -0.1600    0.0100 NC         1 BUG     -0.796295
     11 C2          2.4070    0.8260    0.0200 CQ         1 BUG      0.803870
     12 N1          2.0100    2.1240    0.0100 NA         1 BUG     -0.653338
     13 H1'         0.2310   -2.3350   -0.2530 H2         1 BUG      0.092964
     14 H2'1       -1.0890   -3.6680    1.3610 HC         1 BUG      0.130307
     15 H2'2       -0.4750   -2.1960    2.1140 HC         1 BUG      0.130307
     16 H2'3       -2.1650   -2.2990    1.6250 HC         1 BUG      0.130307
     17 HHO4       -2.4610   -2.2420   -0.9030 HO         1 BUG      0.435111
     18 N21         3.7740    0.6890    0.0490 N*         1 BUG     -0.780252
     19 N20        -3.1630   -0.3530   -0.1160 N*         1 BUG     -0.665657
     20 H1          2.7280    2.8160    0.0210 H          1 BUG      0.419346
     21 O10         0.4870    3.7880   -0.0230 O          1 BUG     -0.619470
     22 C11         4.2390   -0.5000   -0.0580 CM         1 BUG      0.323350
     23 N12         5.5360   -0.7890   -0.0120 NT         1 BUG     -0.048062
     24 H11         3.5880   -1.3490   -0.1920 HA         1 BUG      0.064837
     25 C14         6.5470    0.2370    0.1500 CT         1 BUG     -0.175330
     26 C15         6.0110   -2.1390   -0.2250 CT         1 BUG     -0.175330
     27 H141        7.1010    0.3740   -0.7740 H1         1 BUG      0.107200
     28 H142        7.2410   -0.0580    0.9290 H1         1 BUG      0.107200
     29 H143        6.0750    1.1660    0.4220 H1         1 BUG      0.107200
     30 H151        6.6110   -2.1970   -1.1280 H1         1 BUG      0.107200
     31 H152        5.1760   -2.8190   -0.3220 H1         1 BUG      0.107200
     32 H153        6.6210   -2.4610    0.6130 H1         1 BUG      0.107200
     33 C19        -4.1510    0.4480    0.0020 CM         1 BUG      0.294198
     34 N4         -5.4260    0.0580   -0.0790 NT         1 BUG     -0.072090
     35 H19        -4.0000    1.5030    0.1660 HA         1 BUG      0.089780
     36 C20        -5.7510   -1.3410   -0.2690 CT         1 BUG     -0.200087
     37 C21        -6.5020    0.9650    0.2620 CT         1 BUG     -0.200087
     38 H201       -6.7880   -1.4220   -0.5660 H1         1 BUG      0.116494
     39 H202       -5.6020   -1.9130    0.6420 H1         1 BUG      0.116494
     40 H203       -5.1310   -1.7630   -1.0460 H1         1 BUG      0.116494
     41 H211       -7.2670    0.9440   -0.5050 H1         1 BUG      0.116494
     42 H212       -6.1220    1.9740    0.3360 H1         1 BUG      0.116494
     43 H213       -6.9580    0.6980    1.2110 H1         1 BUG      0.116494
@<TRIPOS>BOND
    1     1     2 1
    2     1     3 1
    3     1     8 1
    4     4     5 1
    5     4    12 1
    6     4    21 1
    7     5     6 1
    8     5     9 1
    9     6     7 1
   10     7     8 1
   11     7    19 1
   12     8     9 1
   13     9    10 1
   14    10    11 1
   15    11    12 1
   16    11    18 1
   17    18    22 1
   18    19    33 1
   19    22    23 1
   20    23    25 1
   21    23    26 1
   22    33    34 1
   23    34    36 1
   24    34    37 1
   25     1    13 1
   26     2    14 1
   27     2    15 1
   28     2    16 1
   29     3    17 1
   30    12    20 1
   31    22    24 1
   32    25    27 1
   33    25    28 1
   34    25    29 1
   35    26    30 1
   36    26    31 1
   37    26    32 1
   38    33    35 1
   39    36    38 1
   40    36    39 1
   41    36    40 1
   42    37    41 1
   43    37    42 1
   44    37    43 1
@<TRIPOS>SUBSTRUCTURE
      1 BUG               1 ****               0 ****  **** 
