@<TRIPOS>MOLECULE
modXNA-fragment:C3Y:HEAD01:@C1:HEAD01STRIP:@C1',H1',O4',HHO4,C2',H2'1,H2'3,H2'2
   33    33     1     0     0
SMALL
USER_CHARGES


@<TRIPOS>ATOM
      1 O4'        -5.0600   -0.3450    0.1420 OH         1 C3Y     -0.781569
      2 C1'        -3.8660   -1.0010   -0.2200 CT         1 C3Y      0.380922
      3 H1'        -3.9040   -1.2820   -1.2680 H1         1 C3Y     -0.003085
      4 C1         -2.7500    0.0020   -0.0490 CM         1 C3Y     -0.273011
      5 C6         -2.8980    1.1540    0.5970 CM         1 C3Y      0.093629
      6 N5         -1.8610    2.0420    0.7360 NA         1 C3Y     -0.604756
      7 C4         -0.6090    1.8330    0.2330 C          1 C3Y      0.590442
      8 O4          0.2780    2.6250    0.3970 O          1 C3Y     -0.622596
      9 N3         -0.4500    0.6600   -0.4680 N*         1 C3Y     -0.301989
     10 C12         0.8790    0.4070   -1.0320 CT         1 C3Y      0.003256
     11 C2         -1.4450   -0.3020   -0.6410 C          1 C3Y      0.536160
     12 O2         -1.2170   -1.3100   -1.2510 O          1 C3Y     -0.563802
     13 C2'        -3.6590   -2.2580    0.6210 CT         1 C3Y     -0.324712
     14 H2'1       -3.6370   -2.0010    1.6750 HC         1 C3Y      0.111277
     15 HHO4       -5.7820   -0.9540    0.0810 HO         1 C3Y      0.470465
     16 H2'2       -4.4740   -2.9590    0.4560 HC         1 C3Y      0.111277
     17 H2'3       -2.7350   -2.7530    0.3550 HC         1 C3Y      0.111277
     18 C12         1.8190   -0.2250   -0.0080 CT         1 C3Y     -0.114857
     19 1H12        1.2570    1.3570   -1.3760 H1         1 C3Y      0.060825
     20 2H12        0.7450   -0.2440   -1.8800 H1         1 C3Y      0.060825
     21 C14         3.2740   -0.2290   -0.4840 CT         1 C3Y      0.253977
     22 1H12        1.5090   -1.2410    0.1980 HC         1 C3Y      0.069682
     23 2H12        1.7620    0.3290    0.9250 HC         1 C3Y      0.069682
     24 C16         4.1430   -1.0730    0.4600 C          1 C3Y      0.535298
     25 N17         3.8610    1.0990   -0.6470 NT         1 C3Y     -1.069214
     26 H14         3.3370   -0.7390   -1.4410 H1         1 C3Y      0.026811
     27 O17         5.3490   -0.5930    0.6870 OH         1 C3Y     -0.588081
     28 O18         3.7670   -2.0990    0.9220 O          1 C3Y     -0.583305
     29 1H17        3.4240    1.7720   -0.0450 H          1 C3Y      0.407190
     30 2H17        3.7790    1.4380   -1.5840 H          1 C3Y      0.407190
     31 7HO1        5.4220    0.2520    0.2450 HO         1 C3Y      0.407073
     32 H6         -3.8290    1.4490    1.0360 H4         1 C3Y      0.207692
     33 H5         -1.9800    2.8930    1.2370 H          1 C3Y      0.385152
@<TRIPOS>BOND
    1     1     2 1
    2     2     4 1
    3     2    13 1
    4     4     5 1
    5     4    11 1
    6     5     6 1
    7     6     7 1
    8     7     8 1
    9     7     9 1
   10     9    10 1
   11     9    11 1
   12    10    18 1
   13    11    12 1
   14    18    21 1
   15    21    24 1
   16    21    25 1
   17    24    27 1
   18    24    28 1
   19     1    15 1
   20     2     3 1
   21     5    32 1
   22     6    33 1
   23    10    19 1
   24    10    20 1
   25    13    14 1
   26    13    16 1
   27    13    17 1
   28    18    22 1
   29    18    23 1
   30    21    26 1
   31    25    29 1
   32    25    30 1
   33    27    31 1
@<TRIPOS>SUBSTRUCTURE
      1 C3Y               1 ****               0 ****  **** 
