@<TRIPOS>MOLECULE
modXNA-fragment:C4J:HEAD01:@C1:HEAD01STRIP:@C1',H1',O4',HHO4,C2',H2'1,H2'3,H2'2
   36    36     1     0     0
SMALL
USER_CHARGES


@<TRIPOS>ATOM
      1 O4'         4.6980   -0.5480    1.2110 OH         1 C4J     -0.770355
      2 C1'         3.7400   -1.2680    0.4690 CT         1 C4J      0.400260
      3 H1'         3.3500   -2.0860    1.0670 H1         1 C4J     -0.002944
      4 C1          2.5990   -0.3190    0.1870 CM         1 C4J     -0.287594
      5 C6          2.6750    0.9930    0.3960 CM         1 C4J     -0.010241
      6 H6          3.5670    1.4400    0.7830 H4         1 C4J      0.232973
      7 N5          1.6350    1.8560    0.1510 N*         1 C4J     -0.151132
      8 C8          1.7500    3.2860    0.4220 CT         1 C4J     -0.133876
      9 C4          0.4340    1.4060   -0.3210 C          1 C4J      0.556569
     10 O4         -0.4860    2.1580   -0.5140 O          1 C4J     -0.600166
     11 N3          0.3350    0.0560   -0.5590 N*         1 C4J     -0.432861
     12 C12        -0.9560   -0.4190   -1.0670 CT         1 C4J      0.067734
     13 C2          1.3420   -0.8740   -0.3060 C          1 C4J      0.563746
     14 O2          1.1560   -2.0440   -0.4900 O          1 C4J     -0.561505
     15 C2'         4.3580   -1.8370   -0.8060 CT         1 C4J     -0.349392
     16 H2'1        4.7690   -1.0360   -1.4100 HC         1 C4J      0.117488
     17 HHO4        5.4330   -1.1130    1.4040 HO         1 C4J      0.460585
     18 H2'2        5.1620   -2.5270   -0.5590 HC         1 C4J      0.117488
     19 H2'3        3.6200   -2.3790   -1.3830 HC         1 C4J      0.117488
     20 H81         2.7540    3.4880    0.7640 H1         1 C4J      0.102705
     21 H82         1.0440    3.5840    1.1830 H1         1 C4J      0.102705
     22 H83         1.5550    3.8530   -0.4760 H1         1 C4J      0.102705
     23 C10        -2.0000   -0.5860    0.0450 CT         1 C4J     -0.182497
     24 1H12       -0.7740   -1.3600   -1.5570 H1         1 C4J      0.064104
     25 2H12       -1.2840    0.2950   -1.8050 H1         1 C4J      0.064104
     26 C12        -3.4240   -0.3540   -0.4750 CT         1 C4J      0.214789
     27 1H10       -1.8120    0.1280    0.8400 HC         1 C4J      0.101759
     28 2H10       -1.9300   -1.5770    0.4720 HC         1 C4J      0.101759
     29 C14        -4.4320   -0.8680    0.5620 C          1 C4J      0.568061
     30 H12        -3.5820   -0.9710   -1.3550 H1         1 C4J      0.014725
     31 N16        -3.6640    1.0570   -0.7660 NT         1 C4J     -1.020878
     32 O15        -5.2050    0.0520    1.1000 OH         1 C4J     -0.598804
     33 O17        -4.4940   -2.0160    0.8560 O          1 C4J     -0.602297
     34 1H16       -4.0730    1.2000   -1.6670 H          1 C4J      0.392607
     35 2H16       -2.8300    1.6090   -0.7070 H          1 C4J      0.392607
     36 5HO1       -4.9810    0.8910    0.6960 HO         1 C4J      0.403084
@<TRIPOS>BOND
    1     1     2 1
    2     2     4 1
    3     2    15 1
    4     4     5 1
    5     4    13 1
    6     5     7 1
    7     7     8 1
    8     7     9 1
    9     9    10 1
   10     9    11 1
   11    11    12 1
   12    11    13 1
   13    12    23 1
   14    13    14 1
   15    23    26 1
   16    26    29 1
   17    26    31 1
   18    29    32 1
   19    29    33 1
   20     1    17 1
   21     2     3 1
   22     5     6 1
   23     8    20 1
   24     8    21 1
   25     8    22 1
   26    12    24 1
   27    12    25 1
   28    15    16 1
   29    15    18 1
   30    15    19 1
   31    23    27 1
   32    23    28 1
   33    26    30 1
   34    31    34 1
   35    31    35 1
   36    32    36 1
@<TRIPOS>SUBSTRUCTURE
      1 C4J               1 ****               0 ****  **** 
