@<TRIPOS>MOLECULE
modXNA-fragment:C5C:HEAD01:@N1:HEAD01STRIP:@C1',H1',O4',HHO4,C2',H2'1,H2'3,H2'2
   23    23     1     0     0
SMALL
USER_CHARGES


@<TRIPOS>ATOM
      1 O4'        -2.4020   -1.7400    0.8550 OH         1 C5C     -0.734537
      2 C1'        -2.5250   -0.5090    0.2120 CT         1 C5C      0.331072
      3 H1'        -3.1060    0.1800    0.8040 H2         1 C5C      0.047049
      4 N1         -1.1660    0.0500    0.1620 N*         1 C5C     -0.257258
      5 C6         -0.0900   -0.7370    0.1300 CM         1 C5C      0.206839
      6 H6         -0.2550   -1.7940    0.1520 H4         1 C5C      0.189159
      7 C5          1.1700   -0.2280    0.0620 CM         1 C5C     -0.583024
      8 C8          2.2860   -1.1940   -0.0920 C          1 C5C      0.725191
      9 C4          1.2490    1.2070    0.1200 CA         1 C5C      0.737477
     10 N4          2.4780    1.8240    0.1520 N2         1 C5C     -0.977778
     11 H41         2.3950    2.8120    0.2760 H          1 C5C      0.408299
     12 H42         3.1580    1.4150    0.7580 H          1 C5C      0.408299
     13 N3          0.2120    1.9740    0.1190 NC         1 C5C     -0.842890
     14 C2         -1.0460    1.4560    0.0770 C          1 C5C      0.696657
     15 O2         -2.0430    2.1120   -0.0060 O          1 C5C     -0.623265
     16 C2'        -3.1210   -0.6460   -1.1800 CT         1 C5C     -0.311336
     17 H2'1       -2.5260   -1.3290   -1.7780 HC         1 C5C      0.117385
     18 HHO4       -3.2420   -2.1780    0.8700 HO         1 C5C      0.477787
     19 H2'2       -4.1320   -1.0380   -1.1130 HC         1 C5C      0.117385
     20 H2'3       -3.1650    0.3180   -1.6670 HC         1 C5C      0.117385
     21 O9          2.1690   -2.3480    0.1600 O          1 C5C     -0.593039
     22 O10         3.4390   -0.7210   -0.5600 OH         1 C5C     -0.665510
     23 0HO1        3.3600    0.1670   -0.8920 HO         1 C5C      0.439325
@<TRIPOS>BOND
    1     1     2 1
    2     2     4 1
    3     2    16 1
    4     4     5 1
    5     4    14 1
    6     5     7 1
    7     7     8 1
    8     7     9 1
    9     8    21 1
   10     8    22 1
   11     9    10 1
   12     9    13 1
   13    13    14 1
   14    14    15 1
   15     1    18 1
   16     2     3 1
   17     5     6 1
   18    10    11 1
   19    10    12 1
   20    16    17 1
   21    16    19 1
   22    16    20 1
   23    22    23 1
@<TRIPOS>SUBSTRUCTURE
      1 C5C               1 ****               0 ****  **** 
