@<TRIPOS>MOLECULE
modXNA-fragment:C5U:HEAD01:@N1:HEAD01STRIP:@C1',H1',O4',HHO4,C2',H2'1,H2'3,H2'2
   25    25     1     0     0
SMALL
USER_CHARGES


@<TRIPOS>ATOM
      1 O4'         2.3420   -2.1020   -0.7320 OH         1 C5U     -0.739849
      2 C1'         2.7430   -0.8390   -0.2990 CT         1 C5U      0.309893
      3 H1'         3.3000   -0.3270   -1.0670 H2         1 C5U      0.060719
      4 N1          1.5050   -0.0710   -0.1170 N*         1 C5U     -0.150308
      5 C6          0.3420   -0.6840    0.2840 CM         1 C5U     -0.036512
      6 H6          0.4240   -1.7420    0.4210 H4         1 C5U      0.253773
      7 C5         -0.8100   -0.0360    0.4800 CM         1 C5U     -0.119774
      8 C8         -2.0690   -0.7170    0.9640 CT         1 C5U     -0.299229
      9 C4         -0.8290    1.4020    0.2460 C          1 C5U      0.553168
     10 O4         -1.8070    2.1000    0.3520 O          1 C5U     -0.603105
     11 N3          0.3790    1.9450   -0.1180 NA         1 C5U     -0.649030
     12 H3          0.4030    2.9310   -0.2780 H          1 C5U      0.394898
     13 C2          1.5680    1.2870   -0.3100 C          1 C5U      0.551353
     14 O2          2.5710    1.8620   -0.6150 O          1 C5U     -0.595502
     15 C2'         3.5530   -0.9060    0.9860 CT         1 C5U     -0.330817
     16 H2'1        2.9830   -1.3970    1.7680 HC         1 C5U      0.125499
     17 HHO4        3.1030   -2.6220   -0.9500 HO         1 C5U      0.484654
     18 H2'2        4.4660   -1.4710    0.8220 HC         1 C5U      0.125499
     19 H2'3        3.8270    0.0900    1.3110 HC         1 C5U      0.125499
     20 H81        -1.8360   -1.7020    1.3400 HC         1 C5U      0.134369
     21 C9         -3.1330   -0.9050   -0.1130 C          1 C5U      0.649576
     22 H82        -2.4990   -0.1370    1.7760 HC         1 C5U      0.134369
     23 O10        -3.6590    0.2000   -0.6150 OH         1 C5U     -0.657729
     24 O11        -3.4820   -1.9780   -0.4730 O          1 C5U     -0.578568
     25 0HO1       -3.2700    0.9910   -0.2460 HO         1 C5U      0.453686
@<TRIPOS>BOND
    1     1     2 1
    2     2     4 1
    3     2    15 1
    4     4     5 1
    5     4    13 1
    6     5     7 1
    7     7     8 1
    8     7     9 1
    9     8    21 1
   10     9    10 1
   11     9    11 1
   12    11    13 1
   13    13    14 1
   14    21    23 1
   15    21    24 1
   16     1    17 1
   17     2     3 1
   18     5     6 1
   19     8    20 1
   20     8    22 1
   21    11    12 1
   22    15    16 1
   23    15    18 1
   24    15    19 1
   25    23    25 1
@<TRIPOS>SUBSTRUCTURE
      1 C5U               1 ****               0 ****  **** 
