@<TRIPOS>MOLECULE
modXNA-fragment:C6A:HEAD01:@N9:HEAD01STRIP:@C1',H1',O4',HHO4,C2',H2'1,H2'3,H2'2
   29    30     1     0     0
SMALL
USER_CHARGES


@<TRIPOS>ATOM
      1 O4'        -4.5320   -1.1140    0.7650 OH         1 C6A     -0.733409
      2 C1'        -3.8950   -0.0380    0.1450 CT         1 C6A      0.305414
      3 H1'        -3.9820    0.8590    0.7440 H2         1 C6A      0.063586
      4 N9         -2.4870   -0.3770    0.1210 N*         1 C6A     -0.134501
      5 C8         -1.9170   -1.6240    0.0370 CK         1 C6A      0.187074
      6 H8         -2.5240   -2.5040    0.0240 H5         1 C6A      0.159230
      7 N7         -0.6360   -1.6060    0.0000 NB         1 C6A     -0.588570
      8 C5         -0.3140   -0.2660    0.0590 CB         1 C6A     -0.092529
      9 C6          0.9050    0.4300    0.0610 CA         1 C6A      0.548922
     10 N6          2.0850   -0.1990   -0.0060 N2         1 C6A     -0.435284
     11 C11         3.3400    0.4930   -0.0020 CT         1 C6A     -0.244005
     12 H6          2.1100   -1.1940   -0.0540 H          1 C6A      0.309187
     13 N1          0.8770    1.7570    0.1280 NC         1 C6A     -0.820268
     14 C2         -0.3030    2.3670    0.1910 CQ         1 C6A      0.502583
     15 H2         -0.2600    3.4400    0.2430 H5         1 C6A      0.039168
     16 N3         -1.5010    1.8360    0.1970 NC         1 C6A     -0.813658
     17 C4         -1.4490    0.5050    0.1340 CB         1 C6A      0.400606
     18 C2'        -4.4360    0.2170   -1.2540 CT         1 C6A     -0.343303
     19 H2'1       -4.3350   -0.6730   -1.8640 HC         1 C6A      0.127296
     20 HHO4       -5.4710   -0.9900    0.7310 HO         1 C6A      0.475103
     21 H2'2       -5.4870    0.4900   -1.2080 HC         1 C6A      0.127296
     22 H2'3       -3.8980    1.0330   -1.7210 HC         1 C6A      0.127296
     23 C9          4.4690   -0.5210   -0.0830 C          1 C6A      0.743487
     24 1H11        3.4580    1.0880    0.8980 H1         1 C6A      0.149265
     25 2H11        3.4140    1.1770   -0.8410 H1         1 C6A      0.149265
     26 N11         5.7060    0.0190   -0.0900 N          1 C6A     -1.147757
     27 O13         4.2720   -1.7020   -0.1410 O          1 C6A     -0.621820
     28 1H11        5.8660    0.9950   -0.0090 H          1 C6A      0.463073
     29 2H11        6.4900   -0.5930   -0.1190 H          1 C6A      0.463073
@<TRIPOS>BOND
    1     1     2 1
    2     2     4 1
    3     2    18 1
    4     4     5 1
    5     4    17 1
    6     5     7 1
    7     7     8 1
    8     8     9 1
    9     8    17 1
   10     9    10 1
   11     9    13 1
   12    10    11 1
   13    11    23 1
   14    13    14 1
   15    14    16 1
   16    16    17 1
   17    23    26 1
   18    23    27 1
   19     1    20 1
   20     2     3 1
   21     5     6 1
   22    10    12 1
   23    11    24 1
   24    11    25 1
   25    14    15 1
   26    18    19 1
   27    18    21 1
   28    18    22 1
   29    26    28 1
   30    26    29 1
@<TRIPOS>SUBSTRUCTURE
      1 C6A               1 ****               0 ****  **** 
