@<TRIPOS>MOLECULE
modXNA-fragment:C7G:HEAD01:@N9:HEAD01STRIP:@C1',H1',O4',HHO4,C2',H2'1,H2'3,H2'2
   25    26     1     0     0
SMALL
USER_CHARGES


@<TRIPOS>ATOM
      1 O4'         3.4680   -0.2630    0.9410 OH         1 C7G     -0.733010
      2 C1'         2.5180   -0.9200    0.1600 CT         1 C7G      0.391859
      3 H1'         2.1970   -1.8380    0.6320 H2         1 C7G      0.012459
      4 N9          1.3570   -0.0490    0.1360 N*         1 C7G      0.021519
      5 C8          1.3830    1.3230    0.0800 CA         1 C7G     -0.168409
      6 H8          2.3070    1.8560    0.1220 H4         1 C7G      0.244825
      7 C7          0.1140    1.7890    0.0090 C*         1 C7G     -0.139252
      8 C5         -0.7480    0.6390    0.0190 CB         1 C7G     -0.205346
      9 C6         -2.1680    0.4390   -0.0430 C          1 C7G      0.604759
     10 O6         -3.0520    1.2380   -0.1260 O          1 C7G     -0.586343
     11 N1         -2.4780   -0.9360   -0.0040 NA         1 C7G     -0.611184
     12 H1         -3.4490   -1.1410   -0.1110 H          1 C7G      0.416035
     13 C2         -1.5760   -1.9480    0.0710 CA         1 C7G      0.757551
     14 N2         -2.0830   -3.2110    0.0440 N2         1 C7G     -0.990454
     15 H21        -2.9940   -3.3620    0.4170 H          1 C7G      0.417627
     16 H22        -1.4200   -3.9210    0.2640 H          1 C7G      0.417627
     17 N3         -0.3020   -1.7690    0.1280 NC         1 C7G     -0.773038
     18 C4          0.0680   -0.4620    0.0960 CB         1 C7G      0.284135
     19 C2'         3.0320   -1.2060   -1.2440 CT         1 C7G     -0.362896
     20 H2'1        3.3310   -0.2840   -1.7310 HC         1 C7G      0.129270
     21 HHO4        4.2950   -0.7210    0.8910 HO         1 C7G      0.464306
     22 H2'2        3.8910   -1.8710   -1.2020 HC         1 C7G      0.129270
     23 H2'3        2.2640   -1.6870   -1.8370 HC         1 C7G      0.129270
     24 C10        -0.2440    3.1730   -0.0490 CZ         1 C7G      0.373744
     25 N11        -0.4950    4.2810   -0.0980 N1         1 C7G     -0.516418
@<TRIPOS>BOND
    1     1     2 1
    2     2     4 1
    3     2    19 1
    4     4     5 1
    5     4    18 1
    6     5     7 1
    7     7     8 1
    8     7    24 1
    9     8     9 1
   10     8    18 1
   11     9    10 1
   12     9    11 1
   13    11    13 1
   14    13    14 1
   15    13    17 1
   16    17    18 1
   17    24    25 1
   18     1    21 1
   19     2     3 1
   20     5     6 1
   21    11    12 1
   22    14    15 1
   23    14    16 1
   24    19    20 1
   25    19    22 1
   26    19    23 1
@<TRIPOS>SUBSTRUCTURE
      1 C7G               1 ****               0 ****  **** 
