@<TRIPOS>MOLECULE
modXNA-fragment:CEG:HEAD01:@N9:HEAD01STRIP:@C1',H1',O4',HHO4,C2',H2'1,H2'3,H2'2
   32    33     1     0     0
SMALL
USER_CHARGES


@<TRIPOS>ATOM
      1 O4'         3.4300   -2.4910    0.8440 OH         1 CEG     -0.731654
      2 C1'         2.3660   -2.0700    0.0450 CT         1 CEG      0.288916
      3 H1'         1.4190   -2.3300    0.4990 H2         1 CEG      0.058221
      4 N9          2.4250   -0.6260    0.0310 N*         1 CEG      0.034702
      5 C8          3.5510    0.1650   -0.0540 CK         1 CEG      0.133387
      6 H8          4.5270   -0.2690   -0.0620 H5         1 CEG      0.161109
      7 N7          3.2860    1.4150   -0.0920 NB         1 CEG     -0.581515
      8 C5          1.9130    1.4840   -0.0340 CB         1 CEG      0.063547
      9 C6          1.0310    2.6170   -0.0350 C          1 CEG      0.563435
     10 O6          1.2550    3.7870   -0.0890 O          1 CEG     -0.586846
     11 N1         -0.3140    2.1770    0.0440 NA         1 CEG     -0.633994
     12 H1         -0.9810    2.9180    0.0700 H          1 CEG      0.433610
     13 C2         -0.7360    0.8870    0.1140 CA         1 CEG      0.677937
     14 N2         -2.0720    0.7060    0.2020 N2         1 CEG     -0.695086
     15 C16        -2.6780   -0.6020    0.1730 CT         1 CEG      0.094767
     16 N3          0.0650   -0.1290    0.1110 NC         1 CEG     -0.603828
     17 C4          1.3730    0.2300    0.0430 CB         1 CEG      0.097991
     18 C2'         2.4450   -2.6520   -1.3600 CT         1 CEG     -0.317328
     19 H2'1        3.3840   -2.3780   -1.8280 HC         1 CEG      0.112053
     20 HHO4        3.5310   -3.4300    0.7760 HO         1 CEG      0.473341
     21 H2'2        2.3780   -3.7360   -1.3260 HC         1 CEG      0.112053
     22 H2'3        1.6280   -2.2820   -1.9670 HC         1 CEG      0.112053
     23 C11        -4.0900   -0.4360   -0.3760 C          1 CEG      0.606140
     24 C12        -2.7060   -1.2530    1.5630 CT         1 CEG     -0.217263
     25 H16        -2.1210   -1.2380   -0.5070 H1         1 CEG      0.023825
     26 H2         -2.6850    1.4660    0.0020 H          1 CEG      0.344223
     27 O10        -4.7450   -1.5610   -0.6310 OH         1 CEG     -0.658064
     28 O12        -4.5980    0.6180   -0.5550 O          1 CEG     -0.532553
     29 1H12       -3.1240   -2.2540    1.5350 HC         1 CEG      0.091973
     30 2H12       -3.2960   -0.6540    2.2480 HC         1 CEG      0.091973
     31 3H12       -1.6960   -1.3220    1.9410 HC         1 CEG      0.091973
     32 0HO1       -4.2210   -2.3350   -0.4740 HO         1 CEG      0.462208
@<TRIPOS>BOND
    1     1     2 1
    2     2     4 1
    3     2    18 1
    4     4     5 1
    5     4    17 1
    6     5     7 1
    7     7     8 1
    8     8     9 1
    9     8    17 1
   10     9    10 1
   11     9    11 1
   12    11    13 1
   13    13    14 1
   14    13    16 1
   15    14    15 1
   16    15    23 1
   17    15    24 1
   18    16    17 1
   19    23    27 1
   20    23    28 1
   21     1    20 1
   22     2     3 1
   23     5     6 1
   24    11    12 1
   25    14    26 1
   26    15    25 1
   27    18    19 1
   28    18    21 1
   29    18    22 1
   30    24    29 1
   31    24    30 1
   32    24    31 1
   33    27    32 1
@<TRIPOS>SUBSTRUCTURE
      1 CEG               1 ****               0 ****  **** 
