@<TRIPOS>MOLECULE
modXNA-fragment:CGU:HEAD01:@N1:HEAD01STRIP:@C1',H1',O4',HHO4,C2',H2'1,H2'3,H2'2
   56    56     1     0     0
SMALL
USER_CHARGES


@<TRIPOS>ATOM
      1 O4'         1.8740    3.1430   -1.5420 OH         1 CGU     -0.202527
      2 C1'         1.0540    2.8180   -0.4610 CT         1 CGU      0.078693
      3 H1'         0.0790    2.5290   -0.8200 H2         1 CGU     -0.044847
      4 N1          1.6580    1.6410    0.1600 N*         1 CGU      0.221814
      5 C6          3.0270    1.6350    0.3730 CM         1 CGU     -0.640186
      6 H6          3.5410    2.4960   -0.0020 H4         1 CGU      0.224940
      7 C5          3.6530    0.6300    0.9780 CM         1 CGU      0.519422
      8 C8          5.1460    0.6140    1.2340 CT         1 CGU      0.068584
      9 C4          2.8450   -0.5130    1.4290 C          1 CGU     -0.135689
     10 O4          3.3330   -1.4630    1.9750 O          1 CGU     -0.258500
     11 N3          1.4780   -0.4430    1.1920 NC         1 CGU     -0.093151
     12 C2          0.9550    0.5600    0.6100 CA         1 CGU      0.026430
     13 S2         -0.8060    0.5720    0.3710 S          1 CGU      0.004615
     14 C2'         0.9230    3.9720    0.5230 CT         1 CGU      0.566329
     15 H2'1        0.2950    3.6880    1.3590 HC         1 CGU     -0.134889
     16 HHO4        1.5650    3.9420   -1.9480 HO         1 CGU      0.064894
     17 H2'2        1.8960    4.2690    0.8980 HC         1 CGU     -0.134889
     18 H2'3        0.4670    4.8290    0.0360 HC         1 CGU     -0.134889
     19 C8         -1.2850   -1.0120    1.1560 CT         1 CGU     -0.141919
     20 C8         -2.7870   -1.0820    1.1870 CM         1 CGU     -0.067598
     21 H81        -0.8750   -1.0180    2.1530 H1         1 CGU      0.084696
     22 H82        -0.8220   -1.8140    0.6070 H1         1 CGU      0.084696
     23 C10        -3.5830   -1.7070    0.3280 CM         1 CGU     -0.114198
     24 H8         -3.2410   -0.5560    2.0110 HA         1 CGU      0.090424
     25 C11        -3.1040   -2.4780   -0.8780 CT         1 CGU     -0.002673
     26 C12        -5.0840   -1.6820    0.5340 CT         1 CGU      0.424525
     27 1H11       -3.4740   -3.4990   -0.8410 HC         1 CGU     -0.001313
     28 2H11       -2.0270   -2.5150   -0.9590 HC         1 CGU     -0.001313
     29 3H11       -3.4840   -2.0360   -1.7940 HC         1 CGU     -0.001313
     30 C14        -5.8400   -0.8250   -0.4950 CT         1 CGU     -0.204533
     31 1H12       -5.3070   -1.3100    1.5280 HC         1 CGU     -0.099256
     32 2H12       -5.4640   -2.7020    0.4910 HC         1 CGU     -0.099256
     33 C16        -7.3280   -0.8130   -0.2210 CM         1 CGU     -0.044305
     34 1H14       -5.6570   -1.2070   -1.4970 HC         1 CGU      0.059561
     35 2H14       -5.4340    0.1800   -0.4690 HC         1 CGU      0.059561
     36 C18        -8.2130    0.1030   -0.5840 CM         1 CGU      0.028211
     37 H16        -7.6950   -1.6670    0.3280 HA         1 CGU     -0.004659
     38 C19        -7.8820    1.3470   -1.3720 CT         1 CGU     -0.003811
     39 C20        -9.6750   -0.0410   -0.2340 CT         1 CGU     -0.003811
     40 1H19       -8.2070    2.2370   -0.8360 HC         1 CGU      0.007335
     41 2H19       -8.4110    1.3430   -2.3220 HC         1 CGU      0.007335
     42 3H19       -6.8260    1.4490   -1.5830 HC         1 CGU      0.007335
     43 1H20      -10.2880   -0.0580   -1.1320 HC         1 CGU      0.007335
     44 2H20      -10.0150    0.8030    0.3630 HC         1 CGU      0.007335
     45 3H20       -9.8690   -0.9490    0.3240 HC         1 CGU      0.007335
     46 H81         5.5680    1.5700    0.9380 H1         1 CGU     -0.053225
     47 N25         5.8930   -0.4410    0.5820 NT         1 CGU     -0.119639
     48 H82         5.3110    0.5070    2.2980 H1         1 CGU     -0.053225
     49 C26         5.8790   -0.4070   -0.8540 CT         1 CGU     -0.112787
     50 H25         5.6080   -1.3360    0.9250 H          1 CGU      0.024682
     51 C27         6.6150   -1.5940   -1.4250 C          1 CGU      0.070862
     52 1H26        6.3630    0.4960   -1.2100 H1         1 CGU      0.142828
     53 2H26        4.8840   -0.4210   -1.3060 H1         1 CGU      0.142828
     54 O29         6.9140   -1.4060   -2.7120 OH         1 CGU     -0.029669
     55 O30         6.8760   -2.6080   -0.8400 O          1 CGU     -0.203020
     56 9HO2        7.3360   -2.1960   -3.0340 HO         1 CGU      0.010099
@<TRIPOS>BOND
    1     1     2 1
    2     2     4 1
    3     2    14 1
    4     4     5 1
    5     4    12 1
    6     5     7 1
    7     7     8 1
    8     7     9 1
    9     8    47 1
   10     9    10 1
   11     9    11 1
   12    11    12 1
   13    12    13 1
   14    13    19 1
   15    19    20 1
   16    20    23 1
   17    23    25 1
   18    23    26 1
   19    26    30 1
   20    30    33 1
   21    33    36 1
   22    36    38 1
   23    36    39 1
   24    47    49 1
   25    49    51 1
   26    51    54 1
   27    51    55 1
   28     1    16 1
   29     2     3 1
   30     5     6 1
   31     8    46 1
   32     8    48 1
   33    14    15 1
   34    14    17 1
   35    14    18 1
   36    19    21 1
   37    19    22 1
   38    20    24 1
   39    25    27 1
   40    25    28 1
   41    25    29 1
   42    26    31 1
   43    26    32 1
   44    30    34 1
   45    30    35 1
   46    33    37 1
   47    38    40 1
   48    38    41 1
   49    38    42 1
   50    39    43 1
   51    39    44 1
   52    39    45 1
   53    47    50 1
   54    49    52 1
   55    49    53 1
   56    54    56 1
@<TRIPOS>SUBSTRUCTURE
      1 CGU               1 ****               0 ****  **** 
