@<TRIPOS>MOLECULE
modXNA-fragment:CHU:HEAD01:@N1:HEAD01STRIP:@C1',H1',O4',HHO4,C2',H2'1,H2'3,H2'2
   26    26     1     0     0
SMALL
USER_CHARGES


@<TRIPOS>ATOM
      1 O4'        -2.3340   -2.0870    0.9580 OH         1 CHU     -0.744115
      2 C1'        -2.8200   -0.9170    0.3680 CT         1 CHU      0.279478
      3 H1'        -3.4560   -0.3800    1.0520 H2         1 CHU      0.066515
      4 N1         -1.6490   -0.0640    0.1480 N*         1 CHU     -0.104270
      5 C6         -0.4190   -0.6080   -0.1430 CM         1 CHU     -0.027476
      6 H6         -0.4110   -1.6770   -0.1650 H4         1 CHU      0.228981
      7 C5          0.6700    0.1200   -0.3710 CM         1 CHU     -0.299693
      8 C8          2.0320   -0.4510   -0.6630 CT         1 CHU      0.304344
      9 C4          0.5480    1.5780   -0.3860 C          1 CHU      0.578412
     10 O4          1.4220    2.3350   -0.6890 O          1 CHU     -0.591747
     11 N3         -0.7130    2.0370   -0.0520 NA         1 CHU     -0.639377
     12 H3         -0.8400    3.0280   -0.0410 H          1 CHU      0.388954
     13 C2         -1.8350    1.2980    0.2040 C          1 CHU      0.541900
     14 O2         -2.8960    1.8020    0.4360 O          1 CHU     -0.603541
     15 C2'        -3.5580   -1.2020   -0.9300 CT         1 CHU     -0.287864
     16 H2'1       -2.9100   -1.7170   -1.6310 HC         1 CHU      0.110941
     17 HHO4       -3.0620   -2.6350    1.2190 HO         1 CHU      0.485785
     18 H2'2       -4.4230   -1.8300   -0.7380 HC         1 CHU      0.110941
     19 H2'3       -3.9050   -0.2770   -1.3740 HC         1 CHU      0.110941
     20 O8          2.0260   -1.8100   -1.0240 OH         1 CHU     -0.709450
     21 C9          3.0150   -0.2470    0.4980 C          1 CHU      0.471858
     22 HO8         1.7630   -2.3490   -0.2880 HO         1 CHU      0.435052
     23 O10         4.1570   -0.9090    0.3430 OH         1 CHU     -0.593094
     24 O12         2.8010    0.4180    1.4490 O          1 CHU     -0.495797
     25 0HO1        4.1290   -1.4560   -0.4330 HO         1 CHU      0.414598
     26 H8          2.4450    0.0730   -1.5150 H1         1 CHU      0.074789
@<TRIPOS>BOND
    1     1     2 1
    2     2     4 1
    3     2    15 1
    4     4     5 1
    5     4    13 1
    6     5     7 1
    7     7     8 1
    8     7     9 1
    9     8    20 1
   10     8    21 1
   11     9    10 1
   12     9    11 1
   13    11    13 1
   14    13    14 1
   15    21    23 1
   16    21    24 1
   17     1    17 1
   18     2     3 1
   19     5     6 1
   20     8    26 1
   21    11    12 1
   22    15    16 1
   23    15    18 1
   24    15    19 1
   25    20    22 1
   26    23    25 1
@<TRIPOS>SUBSTRUCTURE
      1 CHU               1 ****               0 ****  **** 
