@<TRIPOS>MOLECULE
modXNA-fragment:CMU:HEAD01:@N1:HEAD01STRIP:@C1',H1',O4',HHO4,C2',H2'1,H2'3,H2'2
   26    26     1     0     0
SMALL
USER_CHARGES


@<TRIPOS>ATOM
      1 O4'        -2.2840   -2.1130    0.7080 OH         1 CMU     -0.735290
      2 C1'        -2.7070   -0.8530    0.2880 CT         1 CMU      0.307046
      3 H1'        -3.2740   -0.3600    1.0610 H2         1 CMU      0.057538
      4 N1         -1.4850   -0.0600    0.1150 N*         1 CMU     -0.141851
      5 C6         -0.3180   -0.6420   -0.3280 CM         1 CMU     -0.038411
      6 H6         -0.3830   -1.6980   -0.4870 H4         1 CMU      0.247377
      7 C5          0.8170    0.0290   -0.5340 CM         1 CMU     -0.144864
      8 C8          2.0830   -0.6280   -1.0320 CT         1 CMU     -0.264744
      9 C4          0.8230    1.4630   -0.2600 C          1 CMU      0.581674
     10 O4          1.7750    2.1880   -0.3740 O          1 CMU     -0.607045
     11 N3         -0.3910    1.9700    0.1580 NA         1 CMU     -0.681563
     12 H3         -0.4300    2.9500    0.3410 H          1 CMU      0.394706
     13 C2         -1.5640    1.2890    0.3520 C          1 CMU      0.560489
     14 O2         -2.5710    1.8400    0.6940 O          1 CMU     -0.605060
     15 C2'        -3.5150   -0.9220   -0.9980 CT         1 CMU     -0.327782
     16 H2'1       -2.9360   -1.3910   -1.7860 HC         1 CMU      0.122767
     17 HHO4       -3.0370   -2.6570    0.8960 HO         1 CMU      0.480603
     18 H2'2       -4.4170   -1.5060   -0.8410 HC         1 CMU      0.122767
     19 H2'3       -3.8080    0.0720   -1.3110 HC         1 CMU      0.122767
     20 H81         1.8450   -1.5630   -1.5190 HC         1 CMU      0.128768
     21 C9          3.0560   -0.9640    0.0950 C          1 CMU      0.685365
     22 H82         2.5640    0.0240   -1.7520 HC         1 CMU      0.128768
     23 O10         3.1740   -2.0860    0.5050 O          1 CMU     -0.643688
     24 N12         3.7650    0.0800    0.5730 N          1 CMU     -1.068758
     25 1H12        3.5310    1.0150    0.3220 H          1 CMU      0.444667
     26 2H12        4.3280   -0.0750    1.3790 H          1 CMU      0.444667
@<TRIPOS>BOND
    1     1     2 1
    2     2     4 1
    3     2    15 1
    4     4     5 1
    5     4    13 1
    6     5     7 1
    7     7     8 1
    8     7     9 1
    9     8    21 1
   10     9    10 1
   11     9    11 1
   12    11    13 1
   13    13    14 1
   14    21    23 1
   15    21    24 1
   16     1    17 1
   17     2     3 1
   18     5     6 1
   19     8    20 1
   20     8    22 1
   21    11    12 1
   22    15    16 1
   23    15    18 1
   24    15    19 1
   25    24    25 1
   26    24    26 1
@<TRIPOS>SUBSTRUCTURE
      1 CMU               1 ****               0 ****  **** 
