@<TRIPOS>MOLECULE
modXNA-fragment:CNU:HEAD01:@N1:HEAD01STRIP:@C1',H1',O4',HHO4,C2',H2'1,H2'3,H2'2
   30    30     1     0     0
SMALL
USER_CHARGES


@<TRIPOS>ATOM
      1 O4'         2.5000   -2.4100   -1.1110 OH         1 CNU     -0.700019
      2 C1'         3.0820   -1.3400   -0.4490 CT         1 CNU      0.355928
      3 H1'         3.7680   -0.8100   -1.0830 H2         1 CNU     -0.001272
      4 N1          2.0210   -0.3590   -0.0880 N*         1 CNU      0.209373
      5 C6          0.8350   -0.8640    0.4120 CM         1 CNU     -0.219195
      6 H6          0.8020   -1.9340    0.4430 H4         1 CNU      0.253293
      7 C5         -0.1960   -0.1210    0.8100 CM         1 CNU      0.017030
      8 C8         -1.4820   -0.7150    1.3470 CT         1 CNU     -0.299039
      9 C4         -0.0430    1.3300    0.7360 C          1 CNU      0.433873
     10 O4         -0.8560    2.1390    1.0720 O          1 CNU     -0.557889
     11 N3          1.1830    1.7400    0.2300 NA         1 CNU     -0.121549
     12 H3          1.3200    2.7280    0.1760 H          1 CNU      0.251836
     13 C2          2.2260    0.9780   -0.1740 C          1 CNU     -0.091802
     14 S2          3.6310    1.7100   -0.7170 S          1 CNU     -0.362411
     15 C2'         3.7880   -1.8590    0.7860 CT         1 CNU     -0.205912
     16 H2'1        3.0960   -2.3860    1.4350 HC         1 CNU      0.085161
     17 HHO4        2.3220   -2.1780   -2.0130 HO         1 CNU      0.437466
     18 H2'2        4.5650   -2.5510    0.4870 HC         1 CNU      0.085161
     19 H2'3        4.2350   -1.0390    1.3330 HC         1 CNU      0.085161
     20 H81        -1.2620   -1.6820    1.7840 H1         1 CNU      0.205624
     21 N9         -2.5570   -0.9140    0.3850 NT         1 CNU     -0.465087
     22 H82        -1.8560   -0.0830    2.1400 H1         1 CNU      0.205624
     23 H9         -2.2470   -1.5220   -0.3490 H          1 CNU      0.296954
     24 C11        -3.1800    0.2720   -0.1800 CT         1 CNU     -0.043145
     25 C11        -4.5990   -0.0200   -0.6510 C          1 CNU      0.582107
     26 1H11       -2.6430    0.7130   -1.0120 H1         1 CNU      0.104078
     27 2H11       -3.2500    1.0340    0.5870 H1         1 CNU      0.104078
     28 O14        -5.1790   -1.0570   -0.0680 OH         1 CNU     -0.575699
     29 O15        -5.1520    0.6510   -1.4540 O          1 CNU     -0.584714
     30 4HO1       -4.5480   -1.4710    0.5150 HO         1 CNU      0.347666
@<TRIPOS>BOND
    1     1     2 1
    2     2     4 1
    3     2    15 1
    4     4     5 1
    5     4    13 1
    6     5     7 1
    7     7     8 1
    8     7     9 1
    9     8    21 1
   10     9    10 1
   11     9    11 1
   12    11    13 1
   13    13    14 1
   14    21    24 1
   15    24    25 1
   16    25    28 1
   17    25    29 1
   18     1    17 1
   19     2     3 1
   20     5     6 1
   21     8    20 1
   22     8    22 1
   23    11    12 1
   24    15    16 1
   25    15    18 1
   26    15    19 1
   27    21    23 1
   28    24    26 1
   29    24    27 1
   30    28    30 1
@<TRIPOS>SUBSTRUCTURE
      1 CNU               1 ****               0 ****  **** 
