@<TRIPOS>MOLECULE
modXNA-fragment:COU:HEAD01:@N1:HEAD01STRIP:@C1',H1',O4',HHO4,C2',H2'1,H2'3,H2'2
   29    29     1     0     0
SMALL
USER_CHARGES


@<TRIPOS>ATOM
      1 O4'         2.4410   -2.4830   -0.2670 OH         1 COU     -0.704444
      2 C1'         3.1300   -1.2680   -0.2420 CT         1 COU      0.320799
      3 H1'         3.6250   -1.0880   -1.1820 H2         1 COU      0.063752
      4 N1          2.1030   -0.2310   -0.1210 N*         1 COU     -0.243689
      5 C6          0.9580   -0.4480    0.6150 CM         1 COU     -0.061025
      6 H6          0.8920   -1.4260    1.0450 H4         1 COU      0.227883
      7 C5         -0.0040    0.4600    0.7820 CM         1 COU      0.116371
      8 C8         -1.2510    0.2240    1.6070 CT         1 COU     -0.892547
      9 C4          0.1640    1.7630    0.1390 C          1 COU      0.613334
     10 O4         -0.6270    2.6630    0.1910 O          1 COU     -0.599154
     11 N3          1.3440    1.9030   -0.5670 NA         1 COU     -0.801214
     12 H3          1.5030    2.7840   -1.0090 H          1 COU      0.417277
     13 C2          2.3440    0.9800   -0.7240 C          1 COU      0.622660
     14 O2          3.3440    1.2200   -1.3360 O          1 COU     -0.613623
     15 C2'         4.1290   -1.2050    0.9030 CT         1 COU     -0.342424
     16 H2'1        3.6290   -1.3550    1.8540 HC         1 COU      0.127969
     17 HHO4        3.0530   -3.1910   -0.4140 HO         1 COU      0.461103
     18 H2'2        4.8820   -1.9780    0.7850 HC         1 COU      0.127969
     19 H2'3        4.6310   -0.2450    0.9090 HC         1 COU      0.127969
     20 H81        -1.1900   -0.7550    2.0700 H1         1 COU      0.370928
     21 N9         -2.5110    0.3170    0.8940 NT         1 COU     -0.021351
     22 H82        -1.2910    0.9520    2.4070 H1         1 COU      0.370928
     23 C10        -2.6910   -0.6260   -0.1800 CT         1 COU     -0.038638
     24 H9         -2.6440    1.2570    0.5780 H          1 COU      0.270068
     25 C11        -4.1440   -0.7690   -0.5850 C          1 COU      0.508486
     26 1H10       -2.3840   -1.6120    0.1570 H1         1 COU      0.038895
     27 2H10       -2.1370   -0.4170   -1.0920 H1         1 COU      0.038895
     28 O13        -4.5230   -1.2240   -1.6110 O2         1 COU     -0.387328
     29 O15        -5.0010   -0.3640    0.3430 O2         1 COU     -0.387328
@<TRIPOS>BOND
    1     1     2 1
    2     2     4 1
    3     2    15 1
    4     4     5 1
    5     4    13 1
    6     5     7 1
    7     7     8 1
    8     7     9 1
    9     8    21 1
   10     9    10 1
   11     9    11 1
   12    11    13 1
   13    13    14 1
   14    21    23 1
   15    23    25 1
   16    25    28 1
   17    25    29 1
   18     1    17 1
   19     2     3 1
   20     5     6 1
   21     8    20 1
   22     8    22 1
   23    11    12 1
   24    15    16 1
   25    15    18 1
   26    15    19 1
   27    21    24 1
   28    23    26 1
   29    23    27 1
@<TRIPOS>SUBSTRUCTURE
      1 COU               1 ****               0 ****  **** 
