@<TRIPOS>MOLECULE
modXNA-fragment:CSU:HEAD01:@N1:HEAD01STRIP:@C1',H1',O4',HHO4,C2',H2'1,H2'3,H2'2
   25    25     1     0     0
SMALL
USER_CHARGES


@<TRIPOS>ATOM
      1 O4'        -1.8120   -2.4190    0.8080 OH         1 CSU     -0.303275
      2 C1'        -2.3820   -1.3130    0.1730 CT         1 CSU     -0.046367
      3 H1'        -3.1040   -0.8360    0.8110 H2         1 CSU      0.122133
      4 N1         -1.2810   -0.3450    0.0020 N*         1 CSU      0.445061
      5 C6         -0.0320   -0.8420   -0.3190 CM         1 CSU     -0.291896
      6 H6          0.0020   -1.9070   -0.4160 H4         1 CSU      0.173886
      7 C5          1.0540   -0.0860   -0.4870 CM         1 CSU      0.028961
      8 C8          2.4040   -0.6290   -0.8750 CT         1 CSU      0.065352
      9 C4          0.9030    1.3600   -0.3370 C          1 CSU      0.370889
     10 O4          1.7780    2.1600   -0.4470 O          1 CSU     -0.478653
     11 N3         -0.3950    1.7590   -0.0460 NA         1 CSU     -0.152970
     12 H3         -0.5350    2.7440    0.0460 H          1 CSU      0.244126
     13 C2         -1.4950    0.9900    0.1260 C          1 CSU     -0.082107
     14 S2         -2.9720    1.7030    0.4480 S          1 CSU     -0.353663
     15 C2'        -3.0020   -1.6850   -1.1620 CT         1 CSU     -0.065169
     16 H2'1       -2.2710   -2.1710   -1.8000 HC         1 CSU      0.044926
     17 HHO4       -2.4910   -2.9390    1.2140 HO         1 CSU      0.292085
     18 H2'2       -3.8240   -2.3750   -1.0030 HC         1 CSU      0.044926
     19 H2'3       -3.3870   -0.8050   -1.6610 HC         1 CSU      0.044926
     20 H81         2.3180   -1.6870   -1.1050 HC         1 CSU      0.079438
     21 C9          3.5040   -0.5060    0.1740 C          1 CSU      0.097076
     22 H82         2.7750   -0.1330   -1.7600 HC         1 CSU      0.079438
     23 O10         4.6330   -0.3980   -0.1200 O          1 CSU     -0.338350
     24 O11         3.1340   -0.6060    1.4480 OH         1 CSU     -0.310088
     25 1HO1        2.1940   -0.6790    1.5410 HO         1 CSU      0.265082
@<TRIPOS>BOND
    1     1     2 1
    2     2     4 1
    3     2    15 1
    4     4     5 1
    5     4    13 1
    6     5     7 1
    7     7     8 1
    8     7     9 1
    9     8    21 1
   10     9    10 1
   11     9    11 1
   12    11    13 1
   13    13    14 1
   14    21    23 1
   15    21    24 1
   16     1    17 1
   17     2     3 1
   18     5     6 1
   19     8    20 1
   20     8    22 1
   21    11    12 1
   22    15    16 1
   23    15    18 1
   24    15    19 1
   25    24    25 1
@<TRIPOS>SUBSTRUCTURE
      1 CSU               1 ****               0 ****  **** 
