@<TRIPOS>MOLECULE
modXNA-fragment:CTA:HEAD01:@N9:HEAD01STRIP:@C1',H1',O4',HHO4,C2',H2'1,H2'3,H2'2
   36    38     1     0     0
SMALL
USER_CHARGES


@<TRIPOS>ATOM
      1 O4'        -5.4930   -1.1850    1.5260 OH         1 CTA     -0.744362
      2 C1'        -5.1140   -0.1780    0.6380 CT         1 CTA      0.309125
      3 H1'        -5.0950    0.7850    1.1310 H2         1 CTA      0.061500
      4 N9         -3.7440   -0.4750    0.2740 N*         1 CTA     -0.096280
      5 C8         -3.1350   -1.7040    0.1850 CK         1 CTA      0.193155
      6 H8         -3.6710   -2.5950    0.4350 H5         1 CTA      0.158393
      7 N7         -1.9120   -1.6600   -0.1920 NB         1 CTA     -0.602752
      8 C5         -1.6610   -0.3150   -0.3800 CB         1 CTA     -0.006949
      9 C6         -0.5430    0.4150   -0.7680 CQ         1 CTA      0.639859
     10 N6          0.6280   -0.2170   -1.1480 N2         1 CTA     -0.784630
     11 C11         1.7200    0.0130   -0.6010 CM         1 CTA      0.718160
     12 N1         -0.6310    1.7330   -0.8470 NC         1 CTA     -0.813879
     13 C2         -1.7830    2.3170   -0.5460 CQ         1 CTA      0.472351
     14 H2         -1.7970    3.3880   -0.6270 H5         1 CTA      0.054051
     15 N3         -2.9050    1.7460   -0.1660 NC         1 CTA     -0.756956
     16 C4         -2.7940    0.4300   -0.0910 CB         1 CTA      0.318384
     17 C2'        -6.0210   -0.1200   -0.5820 CT         1 CTA     -0.353956
     18 H2'1       -5.6790    0.6440   -1.2690 HC         1 CTA      0.132084
     19 HHO4       -6.4110   -1.0920    1.7410 HO         1 CTA      0.480785
     20 H2'2       -7.0380    0.1240   -0.2840 HC         1 CTA      0.132084
     21 H2'3       -6.0290   -1.0780   -1.0900 HC         1 CTA      0.132084
     22 N22         2.9210   -0.5190   -0.9690 NT         1 CTA     -0.861581
     23 C23         4.0120    0.1270   -0.2770 CT         1 CTA      0.182241
     24 C24         3.2400    0.9180    0.7630 C          1 CTA      0.512042
     25 O25         1.9210    0.7940    0.4880 OS         1 CTA     -0.442971
     26 H22         3.0110   -0.8180   -1.9140 H          1 CTA      0.430718
     27 C29         5.0060   -0.8820    0.3230 CT         1 CTA      0.256457
     28 O31         3.6440    1.5370    1.6740 O          1 CTA     -0.500321
     29 H23         4.5460    0.8200   -0.9210 H1         1 CTA      0.049168
     30 C10         6.2790   -0.2180    0.8160 CT         1 CTA     -0.380069
     31 O11         5.3600   -1.8010   -0.6750 OH         1 CTA     -0.640053
     32 H29         4.5160   -1.3970    1.1450 H1         1 CTA      0.033764
     33 1H10        6.9350   -0.9680    1.2390 HC         1 CTA      0.137938
     34 2H10        6.0650    0.5310    1.5670 HC         1 CTA      0.137938
     35 3H10        6.7970    0.2520   -0.0140 HC         1 CTA      0.137938
     36 1HO1        4.6670   -2.4400   -0.7750 HO         1 CTA      0.401128
@<TRIPOS>BOND
    1     1     2 1
    2     2     4 1
    3     2    17 1
    4     4     5 1
    5     4    16 1
    6     5     7 1
    7     7     8 1
    8     8     9 1
    9     8    16 1
   10     9    10 1
   11     9    12 1
   12    10    11 1
   13    11    22 1
   14    11    25 1
   15    12    13 1
   16    13    15 1
   17    15    16 1
   18    22    23 1
   19    23    24 1
   20    23    27 1
   21    24    25 1
   22    24    28 1
   23    27    30 1
   24    27    31 1
   25     1    19 1
   26     2     3 1
   27     5     6 1
   28    13    14 1
   29    17    18 1
   30    17    20 1
   31    17    21 1
   32    22    26 1
   33    23    29 1
   34    27    32 1
   35    30    33 1
   36    30    34 1
   37    30    35 1
   38    31    36 1
@<TRIPOS>SUBSTRUCTURE
      1 CTA               1 ****               0 ****  **** 
