@<TRIPOS>MOLECULE
modXNA-fragment:DAA:HEAD01:@N9:HEAD01STRIP:@C1',H1',O4',HHO4,C2',H2'1,H2'3,H2'2
   22    23     1     0     0
SMALL
USER_CHARGES


@<TRIPOS>ATOM
      1 O4'        -3.2440   -0.5840    0.8070 OH         1 DAA     -0.745625
      2 C1'        -2.4070    0.3660    0.2200 CT         1 DAA      0.043100
      3 H1'        -2.2770    1.2210    0.8710 H2         1 DAA      0.183800
      4 N9         -1.1080   -0.2670    0.1170 N*         1 DAA     -0.026800
      5 C8         -0.8260   -1.6030   -0.0450 C2         1 DAA      0.160700
      6 H8         -1.6110   -2.3270   -0.0670 H5         1 DAA      0.187700
      7 N7          0.4250   -1.8610   -0.1380 NB         1 DAA     -0.617500
      8 C5          1.0350   -0.6260   -0.0370 CB         1 DAA      0.072500
      9 C6          2.3710   -0.2130   -0.0570 CA         1 DAA      0.689700
     10 N6          3.3900   -1.0750   -0.2320 N2         1 DAA     -0.912300
     11 H61         4.3130   -0.7420   -0.0690 H          1 DAA      0.416700
     12 H62         3.2170   -2.0510   -0.1560 H          1 DAA      0.416700
     13 N1          2.6400    1.0800    0.0800 NC         1 DAA     -0.762400
     14 C2          1.6280    1.9270    0.2190 CQ         1 DAA      0.571600
     15 H2          1.9070    2.9600    0.3220 H5         1 DAA      0.059800
     16 N3          0.3410    1.6700    0.2480 NC         1 DAA     -0.741700
     17 C4          0.0970    0.3690    0.1220 CB         1 DAA      0.380000
     18 C2'        -2.9210    0.8200   -1.1380 CT         1 DAA     -0.443298
     19 H2'1       -3.0350   -0.0310   -1.8000 HC         1 DAA      0.124800
     20 HHO4       -4.1330   -0.2580    0.8240 HO         1 DAA      0.478151
     21 H2'2       -3.8850    1.3110   -1.0310 HC         1 DAA      0.124800
     22 H2'3       -2.2310    1.5270   -1.5830 HC         1 DAA      0.124800
@<TRIPOS>BOND
    1     1     2 1
    2     2     4 1
    3     2    18 1
    4     4     5 1
    5     4    17 1
    6     5     7 1
    7     7     8 1
    8     8     9 1
    9     8    17 1
   10     9    10 1
   11     9    13 1
   12    13    14 1
   13    14    16 1
   14    16    17 1
   15     1    20 1
   16     2     3 1
   17     5     6 1
   18    10    11 1
   19    10    12 1
   20    14    15 1
   21    18    19 1
   22    18    21 1
   23    18    22 1
@<TRIPOS>SUBSTRUCTURE
      1 DAA               1 ****               0 ****  **** 
