@<TRIPOS>MOLECULE
modXNA-fragment:DCC:HEAD01:@N1:HEAD01STRIP:@C1',H1',O4',HHO4,C2',H2'1,H2'3,H2'2
   20    20     1     0     0
SMALL
USER_CHARGES


@<TRIPOS>ATOM
      1 O4'        -2.4360   -1.2300    0.7090 OH         1 CCC     -0.765433
      2 C1'        -1.9840    0.0060    0.2330 CT         1 CCC     -0.011600
      3 H1'        -2.1750    0.7850    0.9530 H2         1 CCC      0.196300
      4 N1         -0.5290   -0.1030    0.1290 N*         1 CCC     -0.033900
      5 C6          0.0790   -1.2950   -0.0700 C1         1 CCC     -0.018300
      6 H6         -0.5660   -2.1470   -0.1220 H4         1 CCC      0.229300
      7 C5          1.4120   -1.3880   -0.1790 C1         1 CCC     -0.522200
      8 H5          1.9020   -2.3270   -0.3390 HA         1 CCC      0.186300
      9 C4          2.1390   -0.1540   -0.0630 CA         1 CCC      0.843900
     10 N4          3.4830   -0.1740   -0.1700 N2         1 CCC     -0.977300
     11 H41         3.9670    0.6690    0.0440 H          1 CCC      0.431400
     12 H42         3.9830   -1.0280   -0.0940 H          1 CCC      0.431400
     13 N3          1.5670    0.9950    0.1210 NC         1 CCC     -0.774800
     14 C2          0.2150    1.0900    0.2020 C          1 CCC      0.795900
     15 O2         -0.3800    2.1260    0.3320 O          1 CCC     -0.654800
     16 C2'        -2.6160    0.3580   -1.1040 CT         1 CCC     -0.375409
     17 H2'1       -2.4130   -0.4190   -1.8330 HC         1 CCC      0.102863
     18 HHO4       -3.3720   -1.1870    0.8450 HO         1 CCC      0.477556
     19 H2'2       -3.6940    0.4540   -0.9950 HC         1 CCC      0.102863
     20 H2'3       -2.2270    1.3020   -1.4620 HC         1 CCC      0.102863
@<TRIPOS>BOND
    1     1     2 1
    2     2     4 1
    3     2    16 1
    4     4     5 1
    5     4    14 1
    6     5     7 1
    7     7     9 1
    8     9    10 1
    9     9    13 1
   10    13    14 1
   11    14    15 1
   12     1    18 1
   13     2     3 1
   14     5     6 1
   15     7     8 1
   16    10    11 1
   17    10    12 1
   18    16    17 1
   19    16    19 1
   20    16    20 1
@<TRIPOS>SUBSTRUCTURE
      1 CCC               1 ****               0 ****  **** 
