@<TRIPOS>MOLECULE
modXNA-fragment:DGG:HEAD01:@N9:HEAD01STRIP:@C1',H1',O4',HHO4,C2',H2'1,H2'3,H2'2
   23    24     1     0     0
SMALL
USER_CHARGES


@<TRIPOS>ATOM
      1 O4'        -3.4210    0.0160    0.9500 OH         1 GGG     -0.748326
      2 C1'        -2.4500    0.6420    0.1670 CT         1 GGG      0.035800
      3 H1'        -2.0840    1.5380    0.6510 H2         1 GGG      0.174600
      4 N9         -1.3330   -0.2760    0.1140 N*         1 GGG      0.057700
      5 C8         -1.3770   -1.6500    0.0270 CK         1 GGG      0.073600
      6 H8         -2.3090   -2.1730    0.0470 H5         1 GGG      0.199700
      7 N7         -0.2190   -2.1870   -0.0510 NB         1 GGG     -0.572500
      8 C5          0.6600   -1.1290   -0.0180 CB         1 GGG      0.199100
      9 C6          2.0940   -1.0990   -0.0810 C          1 GGG      0.491800
     10 O6          2.8970   -1.9760   -0.1820 O          1 GGG     -0.569900
     11 N1          2.5460    0.2430   -0.0120 NA         1 GGG     -0.505300
     12 H1          3.5320    0.3440   -0.1200 H          1 GGG      0.352000
     13 C2          1.7650    1.3490    0.0880 CA         1 GGG      0.743200
     14 N2          2.4140    2.5480    0.0860 N2         1 GGG     -0.923000
     15 H21         3.3260    2.5830    0.4860 H          1 GGG      0.423500
     16 H22         1.8310    3.3190    0.3280 H          1 GGG      0.423500
     17 N3          0.4780    1.3160    0.1460 NC         1 GGG     -0.663600
     18 C4         -0.0190    0.0530    0.0830 CB         1 GGG      0.181400
     19 C2'        -2.9700    0.9770   -1.2240 CT         1 GGG     -0.479592
     20 H2'1       -3.3180    0.0790   -1.7220 HC         1 GGG      0.130390
     21 HHO4       -4.2250    0.5170    0.9230 HO         1 GGG      0.474725
     22 H2'2       -3.7960    1.6810   -1.1590 HC         1 GGG      0.130390
     23 H2'3       -2.1870    1.4310   -1.8190 HC         1 GGG      0.130390
@<TRIPOS>BOND
    1     1     2 1
    2     2     4 1
    3     2    19 1
    4     4     5 1
    5     4    18 1
    6     5     7 1
    7     7     8 1
    8     8     9 1
    9     8    18 1
   10     9    10 1
   11     9    11 1
   12    11    13 1
   13    13    14 1
   14    13    17 1
   15    17    18 1
   16     1    21 1
   17     2     3 1
   18     5     6 1
   19    11    12 1
   20    14    15 1
   21    14    16 1
   22    19    20 1
   23    19    22 1
   24    19    23 1
@<TRIPOS>SUBSTRUCTURE
      1 GGG               1 ****               0 ****  **** 
