@<TRIPOS>MOLECULE
modXNA-fragment:DHT:HEAD01:@N1:HEAD01STRIP:@C1',H1',O4',HHO4,C2',H2'1,H2'3,H2'2
   24    24     1     0     0
SMALL
USER_CHARGES


@<TRIPOS>ATOM
      1 C1          2.2140   -0.0660    0.0290 CT         1 DHT      0.418334
      2 C2          2.7380   -0.9790    1.1280 CT         1 DHT     -0.418543
      3 O1          2.5090   -0.5800   -1.2450 OH         1 DHT     -0.716262
      4 O2         -3.1980    0.6900    0.0490 O          1 DHT     -0.563597
      5 C3         -2.0300    0.4530    0.0850 C          1 DHT      0.502572
      6 N1         -1.0990    1.4540   -0.0720 N          1 DHT     -0.674588
      7 C4          0.2820    1.3700    0.0270 C          1 DHT      0.618215
      8 O3          0.9370    2.3720    0.0710 O          1 DHT     -0.623835
      9 N2          0.7790    0.1020    0.0960 N          1 DHT     -0.466675
     10 C5         -0.0680   -1.0050   -0.3340 CT         1 DHT      0.006297
     11 C6         -1.4380   -0.9190    0.3290 CT         1 DHT      0.079383
     12 C7         -2.3840   -2.0260   -0.1290 CT         1 DHT     -0.229614
     13 H1          2.6390    0.9180    0.1430 H2         1 DHT      0.047410
     14 H2          3.8200   -1.0540    1.0600 HC         1 DHT      0.142303
     15 H3          2.4900   -0.5760    2.1030 HC         1 DHT      0.142303
     16 H4         -1.4530    2.3850   -0.1400 H          1 DHT      0.379571
     17 H5          0.4130   -1.9300   -0.0570 H1         1 DHT      0.093094
     18 H6         -3.3480   -1.9250    0.3490 HC         1 DHT      0.082683
     19 H7         -2.5390   -1.9880   -1.2020 HC         1 DHT      0.082683
     20 H8         -1.9730   -2.9990    0.1210 HC         1 DHT      0.082683
     21 H9          2.3340   -1.9810    1.0470 HC         1 DHT      0.142303
     22 H10         3.4450   -0.5660   -1.3880 HO         1 DHT      0.441093
     23 H11        -0.1680   -1.0080   -1.4150 H1         1 DHT      0.093094
     24 H12        -1.2960   -0.9880    1.4060 HC         1 DHT      0.030681
@<TRIPOS>BOND
    1     1     2 1
    2     1     3 1
    3     1     9 1
    4     4     5 1
    5     5     6 1
    6     5    11 1
    7     6     7 1
    8     7     8 1
    9     7     9 1
   10     9    10 1
   11    10    11 1
   12    11    12 1
   13     1    13 1
   14     2    14 1
   15     2    15 1
   16     2    21 1
   17     3    22 1
   18     6    16 1
   19    10    17 1
   20    10    23 1
   21    11    24 1
   22    12    18 1
   23    12    19 1
   24    12    20 1
@<TRIPOS>SUBSTRUCTURE
      1 DHT               1 ****               0 ****  **** 
