@<TRIPOS>MOLECULE
modXNA-fragment:DMA:HEAD01:@N9:HEAD01STRIP:@C1',H1',O4',HHO4,C2',H2'1,H2'3,H2'2
   28    29     1     0     0
SMALL
USER_CHARGES


@<TRIPOS>ATOM
      1 O4'        -3.0430   -0.8590   -1.1010 OH         1 DMA     -0.742185
      2 C1'        -2.1010   -1.1760   -0.1170 CT         1 DMA      0.393143
      3 H1'        -1.5150   -2.0320   -0.4190 H2         1 DMA      0.040067
      4 N9         -1.1570   -0.0810   -0.0560 N*         1 DMA     -0.180926
      5 C8         -1.3690    1.2900   -0.0020 CA         1 DMA      0.420766
      6 C6         -2.7210    1.9270   -0.0200 CT         1 DMA     -0.303492
      7 N7         -0.2730    1.9580    0.0460 NB         1 DMA     -0.635399
      8 C5          0.7290    1.0100    0.0260 CB         1 DMA     -0.051779
      9 C6          2.1250    1.0840    0.0500 CA         1 DMA      0.584952
     10 N6          2.7830    2.2570    0.1460 N2         1 DMA     -0.948703
     11 H61         3.7610    2.2510   -0.0310 H          1 DMA      0.418569
     12 H62         2.2820    3.1000   -0.0190 H          1 DMA      0.418569
     13 N1          2.8260   -0.0390    0.0020 NC         1 DMA     -0.841661
     14 C2          2.1840   -1.2060   -0.0570 CQ         1 DMA      0.668380
     15 C15         3.0590   -2.4280   -0.1030 CT         1 DMA     -0.338232
     16 N3          0.8800   -1.3930   -0.0780 NC         1 DMA     -0.769874
     17 C4          0.1990   -0.2520   -0.0420 CB         1 DMA      0.265903
     18 C2'        -2.7540   -1.4620    1.2290 CT         1 DMA     -0.368648
     19 H2'1       -1.9960   -1.6890    1.9700 HC         1 DMA      0.124958
     20 HHO4       -3.6490   -1.5800   -1.2010 HO         1 DMA      0.460541
     21 H2'2       -3.3390   -0.6170    1.5690 HC         1 DMA      0.124958
     22 H2'3       -3.4130   -2.3210    1.1470 HC         1 DMA      0.124958
     23 H61        -2.5830    2.9970    0.0530 HC         1 DMA      0.126888
     24 H62        -3.3320    1.5970    0.8130 HC         1 DMA      0.126888
     25 H63        -3.2510    1.6890   -0.9320 HC         1 DMA      0.126888
     26 1H15        2.4570   -3.3240   -0.1500 HC         1 DMA      0.117701
     27 2H15        3.6930   -2.4620    0.7760 HC         1 DMA      0.117701
     28 3H15        3.7100   -2.3830   -0.9700 HC         1 DMA      0.117701
@<TRIPOS>BOND
    1     1     2 1
    2     2     4 1
    3     2    18 1
    4     4     5 1
    5     4    17 1
    6     5     6 1
    7     5     7 1
    8     7     8 1
    9     8     9 1
   10     8    17 1
   11     9    10 1
   12     9    13 1
   13    13    14 1
   14    14    15 1
   15    14    16 1
   16    16    17 1
   17     1    20 1
   18     2     3 1
   19     6    23 1
   20     6    24 1
   21     6    25 1
   22    10    11 1
   23    10    12 1
   24    15    26 1
   25    15    27 1
   26    15    28 1
   27    18    19 1
   28    18    21 1
   29    18    22 1
@<TRIPOS>SUBSTRUCTURE
      1 DMA               1 ****               0 ****  **** 
