@<TRIPOS>MOLECULE
modXNA-fragment:DTT:HEAD01:@N1:HEAD01STRIP:@C1',H1',O4',HHO4,C2',H2'1,H2'3,H2'2
   22    22     1     0     0
SMALL
USER_CHARGES


@<TRIPOS>ATOM
      1 C1'         2.1810   -0.1650   -0.1800 CT         1 TTT      0.067400
      2 C2'         2.7740   -0.3090    1.2130 CT         1 TTT     -0.415654
      3 O4'         2.3730   -1.3160   -0.9490 OH         1 TTT     -0.730006
      4 O4         -3.1900    0.7190    0.0810 O          1 TTT     -0.556300
      5 C4         -2.0240    0.4570    0.0230 C          1 TTT      0.519400
      6 N3         -1.0800    1.4670   -0.0700 NA         1 TTT     -0.434000
      7 C2          0.2820    1.3460   -0.1330 C          1 TTT      0.567700
      8 O2          1.0060    2.3000   -0.1760 O          1 TTT     -0.588100
      9 N1          0.7370    0.0520   -0.1330 N*         1 TTT     -0.023900
     10 C6         -0.1350   -1.0170   -0.0340 CM         1 TTT     -0.220900
     11 C5         -1.4590   -0.8940    0.0440 CM         1 TTT      0.002500
     12 C7         -2.4080   -2.0550    0.1420 CT         1 TTT     -0.226900
     13 H1'         2.5960    0.6980   -0.6740 H2         1 TTT      0.180400
     14 H2'1        3.8480   -0.4630    1.1510 HC         1 TTT      0.116488
     15 H2'2        2.5960    0.5910    1.7900 HC         1 TTT      0.116488
     16 H3         -1.4260    2.4030   -0.0750 H          1 TTT      0.342000
     17 H6          0.3440   -1.9740   -0.0420 H4         1 TTT      0.260700
     18 H71        -3.0000   -1.9950    1.0480 HC         1 TTT      0.077000
     19 H72        -3.1000   -2.0590   -0.6930 HC         1 TTT      0.077000
     20 H73        -1.8680   -2.9950    0.1440 HC         1 TTT      0.077000
     21 H2'3        2.3360   -1.1570    1.7300 HC         1 TTT      0.116488
     22 HHO4        3.3010   -1.4750   -1.0520 HO         1 TTT      0.472667
@<TRIPOS>BOND
    1     1     2 1
    2     1     3 1
    3     1     9 1
    4     4     5 1
    5     5     6 1
    6     5    11 1
    7     6     7 1
    8     7     8 1
    9     7     9 1
   10     9    10 1
   11    10    11 1
   12    11    12 1
   13     1    13 1
   14     2    14 1
   15     2    15 1
   16     2    21 1
   17     3    22 1
   18     6    16 1
   19    10    17 1
   20    12    18 1
   21    12    19 1
   22    12    20 1
@<TRIPOS>SUBSTRUCTURE
      1 TTT               1 ****               0 ****  **** 
