@<TRIPOS>MOLECULE
modXNA-fragment:E3C:HEAD01:@N1:HEAD01STRIP:@C1',H1',O4',HHO4,C2',H2'1,H2'3,H2'2
   27    27     1     0     0
SMALL
USER_CHARGES


@<TRIPOS>ATOM
      1 O4'        -3.2640    0.4580   -0.8080 OH         1 E3C     -0.733322
      2 C1'        -2.4220   -0.4420   -0.1370 CT         1 E3C      0.303894
      3 H1'        -2.3510   -1.3670   -0.6830 H2         1 E3C      0.045775
      4 N1         -1.0970    0.1490   -0.1490 N*         1 E3C     -0.160128
      5 C6         -0.9500    1.5170    0.1430 CM         1 E3C     -0.076500
      6 H6         -1.8500    2.0840    0.2190 H4         1 E3C      0.208141
      7 C5          0.3240    2.0450    0.2370 CM         1 E3C     -0.363017
      8 H5          0.4540    3.0850    0.4710 HA         1 E3C      0.206941
      9 C4          1.4260    1.2470    0.0220 CM         1 E3C      0.374425
     10 N4          2.7600    1.6970    0.0300 N2         1 E3C     -0.909580
     11 H41         3.2650    1.4170    0.8500 H          1 E3C      0.368670
     12 H42         2.8050    2.6920   -0.0480 H          1 E3C      0.368670
     13 N3          1.2280   -0.1180   -0.2960 N*         1 E3C     -0.347582
     14 C2         -0.0220   -0.6850   -0.3290 C          1 E3C      0.502314
     15 O2         -0.1690   -1.8680   -0.5120 O          1 E3C     -0.606855
     16 C2'        -2.9160   -0.7100    1.2790 CT         1 E3C     -0.265083
     17 H2'1       -2.2540   -1.4090    1.7770 HC         1 E3C      0.091072
     18 HHO4       -4.1320    0.0850   -0.8650 HO         1 E3C      0.463424
     19 H2'2       -2.9570    0.2100    1.8520 HC         1 E3C      0.091072
     20 H2'3       -3.9110   -1.1460    1.2580 HC         1 E3C      0.091072
     21 C10         2.3610   -1.0060   -0.5660 CT         1 E3C      0.120630
     22 1H10        3.1420   -0.4060   -1.0030 H1         1 E3C      0.037782
     23 2H10        2.0370   -1.7270   -1.2990 H1         1 E3C      0.037782
     24 C12         2.8640   -1.7300    0.6790 CT         1 E3C     -0.157632
     25 1H12        3.7050   -2.3690    0.4240 HC         1 E3C      0.056464
     26 2H12        2.0820   -2.3490    1.1010 HC         1 E3C      0.056464
     27 3H12        3.1980   -1.0320    1.4410 HC         1 E3C      0.056464
@<TRIPOS>BOND
    1     1     2 1
    2     2     4 1
    3     2    16 1
    4     4     5 1
    5     4    14 1
    6     5     7 1
    7     7     9 1
    8     9    10 1
    9     9    13 1
   10    13    14 1
   11    13    21 1
   12    14    15 1
   13    21    24 1
   14     1    18 1
   15     2     3 1
   16     5     6 1
   17     7     8 1
   18    10    11 1
   19    10    12 1
   20    16    17 1
   21    16    19 1
   22    16    20 1
   23    21    22 1
   24    21    23 1
   25    24    25 1
   26    24    26 1
   27    24    27 1
@<TRIPOS>SUBSTRUCTURE
      1 E3C               1 ****               0 ****  **** 
