@<TRIPOS>MOLECULE
modXNA-fragment:E6A:HEAD01:@N9:HEAD01STRIP:@C1',H1',O4',HHO4,C2',H2'1,H2'3,H2'2
   52    55     1     0     0
SMALL
USER_CHARGES


@<TRIPOS>ATOM
      1 O4'         6.3880    2.6760    0.4910 OH         1 E6A     -0.737506
      2 C1'         6.1950    1.3280    0.7910 CT         1 E6A      0.331107
      3 H1'         5.8990    1.1990    1.8240 H2         1 E6A      0.057753
      4 N9          5.0550    0.9160   -0.0090 N*         1 E6A     -0.192304
      5 C8          4.7190    1.3410   -1.2710 CK         1 E6A      0.247163
      6 H8          5.2970    2.0920   -1.7660 H5         1 E6A      0.151550
      7 N7          3.6720    0.7750   -1.7490 NB         1 E6A     -0.652084
      8 C5          3.2740   -0.0890   -0.7520 CB         1 E6A     -0.034119
      9 C6          2.2160   -0.9980   -0.6470 CA         1 E6A      0.421292
     10 N6          1.3330   -1.1700   -1.6500 N2         1 E6A     -0.435021
     11 C11         0.3030   -2.1830   -1.6470 CT         1 E6A     -0.080702
     12 H6          1.4790   -0.6320   -2.4730 H          1 E6A      0.346897
     13 N1          2.0870   -1.7010    0.4730 NC         1 E6A     -0.709184
     14 C2          2.9920   -1.5260    1.4370 CQ         1 E6A      0.444921
     15 H2          2.8480   -2.1310    2.3150 H5         1 E6A      0.050804
     16 N3          4.0210   -0.7200    1.4550 NC         1 E6A     -0.768281
     17 C4          4.1200   -0.0120    0.3300 CB         1 E6A      0.407729
     18 C2'         7.4260    0.4870    0.4910 CT         1 E6A     -0.335913
     19 H2'1        7.2270   -0.5580    0.6960 HC         1 E6A      0.127007
     20 HHO4        7.2080    2.9750    0.8610 HO         1 E6A      0.480481
     21 H2'2        8.2560    0.8000    1.1170 HC         1 E6A      0.127007
     22 H2'3        7.7140    0.5970   -0.5490 HC         1 E6A      0.127007
     23 1H11        0.0060   -2.3570   -2.6710 H1         1 E6A      0.108787
     24 C10        -0.9260   -1.7960   -0.8690 CV         1 E6A      0.317802
     25 2H11        0.7070   -3.1050   -1.2530 H1         1 E6A      0.108787
     26 C27        -1.1390   -1.7530    0.4800 CA         1 E6A     -0.303153
     27 N28        -2.4000   -1.3210    0.6040 N*         1 E6A      0.346699
     28 N29        -2.9360   -1.1260   -0.5910 NB         1 E6A     -0.163812
     29 N30        -2.0630   -1.3960   -1.4720 NB         1 E6A     -0.399520
     30 C12        -3.2150   -1.1350    1.7870 CT         1 E6A     -0.064861
     31 C32        -3.9120    0.1980    1.7990 CM         1 E6A     -0.125011
     32 1H12       -3.9290   -1.9520    1.8570 H1         1 E6A      0.121798
     33 2H12       -2.5730   -1.1890    2.6530 H1         1 E6A      0.121798
     34 N40        -4.7520    0.5810    0.6700 N3         1 E6A      0.048283
     35 C35        -4.6640    2.0620    0.3990 CT         1 E6A     -0.132853
     36 C36        -5.4660    2.4220   -0.8450 CT         1 E6A     -0.059746
     37 C37        -6.9210    1.9660   -0.7310 CT         1 E6A     -0.003763
     38 C38        -6.9900    0.4710   -0.4170 CT         1 E6A     -0.059746
     39 C39        -6.1820    0.1230    0.8270 CT         1 E6A     -0.132853
     40 H14        -0.4990   -1.9770    1.3040 H4         1 E6A      0.221917
     41 H15        -4.3630    0.1000   -0.1410 H          1 E6A      0.239357
     42 H16        -4.1740    0.6700    2.7270 HP         1 E6A      0.181265
     43 H17        -5.0440    2.5620    1.2810 HP         1 E6A      0.145020
     44 H18        -3.6160    2.2960    0.2890 HP         1 E6A      0.145020
     45 H19        -5.4050    3.4960   -0.9780 HC         1 E6A      0.076274
     46 H20        -4.9970    1.9730   -1.7170 HC         1 E6A      0.076274
     47 H21        -7.4230    2.5290    0.0520 HC         1 E6A      0.051820
     48 H22        -7.4470    2.1740   -1.6540 HC         1 E6A      0.051820
     49 H23        -8.0140    0.1570   -0.2450 HC         1 E6A      0.076274
     50 H24        -6.6210   -0.1090   -1.2580 HC         1 E6A      0.076274
     51 H25        -6.5700    0.6150    1.7100 HP         1 E6A      0.145020
     52 H26        -6.1580   -0.9430    1.0040 HP         1 E6A      0.145020
@<TRIPOS>BOND
    1     1     2 1
    2     2     4 1
    3     2    18 1
    4     4     5 1
    5     4    17 1
    6     5     7 1
    7     7     8 1
    8     8     9 1
    9     8    17 1
   10     9    10 1
   11     9    13 1
   12    10    11 1
   13    11    24 1
   14    13    14 1
   15    14    16 1
   16    16    17 1
   17    24    26 1
   18    24    29 1
   19    26    27 1
   20    27    28 1
   21    27    30 1
   22    28    29 1
   23    30    31 1
   24    31    34 1
   25    34    35 1
   26    34    39 1
   27    35    36 1
   28    36    37 1
   29    37    38 1
   30    38    39 1
   31     1    20 1
   32     2     3 1
   33     5     6 1
   34    10    12 1
   35    11    23 1
   36    11    25 1
   37    14    15 1
   38    18    19 1
   39    18    21 1
   40    18    22 1
   41    26    40 1
   42    30    32 1
   43    30    33 1
   44    31    42 1
   45    34    41 1
   46    35    43 1
   47    35    44 1
   48    36    45 1
   49    36    46 1
   50    37    47 1
   51    37    48 1
   52    38    49 1
   53    38    50 1
   54    39    51 1
   55    39    52 1
@<TRIPOS>SUBSTRUCTURE
      1 E6A               1 ****               0 ****  **** 
