@<TRIPOS>MOLECULE
modXNA-fragment:E7A:HEAD01:@N9:HEAD01STRIP:@C1',H1',O4',HHO4,C2',H2'1,H2'3,H2'2
   50    53     1     0     0
SMALL
USER_CHARGES


@<TRIPOS>ATOM
      1 O4'        -4.2620    2.9610   -1.3110 OH         1 E7A     -0.200503
      2 C1'        -4.6160    2.4140   -0.0730 CT         1 E7A      0.101927
      3 H1'        -5.6540    2.1130   -0.0760 H2         1 E7A      0.303787
      4 N9         -3.8740    1.1880    0.0810 N*         1 E7A     -0.673030
      5 N5         -2.5470    1.1940    0.3030 NB         1 E7A      0.093985
      6 C7         -2.1400   -0.0280    0.2530 CV         1 E7A      0.086127
      7 C5         -3.2300   -0.9140   -0.0250 CB         1 E7A      0.068038
      8 C6         -3.5160   -2.2900   -0.2080 CA         1 E7A     -0.116600
      9 N6         -2.5970   -3.2540   -0.1350 N2         1 E7A     -0.074703
     10 H61        -1.6470   -3.0600    0.0880 H          1 E7A      0.080472
     11 H62        -2.9020   -4.1940   -0.2530 H          1 E7A      0.080472
     12 N1         -4.7640   -2.6520   -0.4710 NC         1 E7A     -0.184134
     13 C2         -5.6990   -1.7130   -0.5510 CQ         1 E7A      0.270942
     14 H2         -6.6890   -2.0730   -0.7670 H5         1 E7A     -0.027123
     15 N3         -5.5760   -0.4180   -0.4020 NC         1 E7A     -0.474909
     16 C4         -4.3200   -0.0620   -0.1400 CB         1 E7A      0.373618
     17 C2'        -4.3410    3.3820    1.0660 CT         1 E7A      0.002825
     18 H2'1       -4.6030    2.9380    2.0190 HC         1 E7A      0.013682
     19 HHO4       -4.9100    3.6020   -1.5710 HO         1 E7A      0.080208
     20 H2'2       -4.9370    4.2780    0.9310 HC         1 E7A      0.013682
     21 H2'3       -3.2960    3.6620    1.0760 HC         1 E7A      0.013682
     22 C9         -0.7160   -0.2920    0.4580 CV         1 E7A     -0.082010
     23 C23         0.2810    0.6020    0.6640 CA         1 E7A      0.096803
     24 N24         1.3730   -0.1610    0.7780 N*         1 E7A     -0.223959
     25 N25         1.0710   -1.4360    0.6500 NB         1 E7A     -0.032498
     26 N26        -0.1630   -1.5220    0.4590 NB         1 E7A     -0.001216
     27 H23         0.2820    1.6670    0.7400 H4         1 E7A     -0.007730
     28 C10         2.7490    0.2070    0.9870 CT         1 E7A      0.086159
     29 1H10        2.7840    1.2670    1.2010 H1         1 E7A      0.002446
     30 2H10        3.1150   -0.3300    1.8490 H1         1 E7A      0.002446
     31 C12         3.5380   -0.1300   -0.2820 CT         1 E7A      0.193064
     32 N12         4.9900    0.2390   -0.2020 N3         1 E7A      0.160877
     33 1H12        3.4820   -1.1880   -0.4900 HP         1 E7A     -0.013580
     34 2H12        3.1160    0.4080   -1.1180 HP         1 E7A     -0.013580
     35 C35         5.7680   -0.6260    0.7580 CT         1 E7A     -0.053034
     36 C36         7.2570   -0.2190    0.8250 CT         1 E7A      0.079380
     37 C37         7.5930    0.9320   -0.1250 CT         1 E7A     -0.053632
     38 C38         7.1030    0.6280   -1.5430 CT         1 E7A      0.079380
     39 C39         5.6160    0.2170   -1.5760 CT         1 E7A     -0.053034
     40 H12         5.0450    1.1890    0.1310 H          1 E7A      0.212346
     41 1H35        5.2920   -0.5420    1.7220 HP         1 E7A      0.082082
     42 2H35        5.6370   -1.6400    0.4070 HP         1 E7A      0.082082
     43 1H36        7.5090    0.0500    1.8430 HC         1 E7A      0.005209
     44 2H36        7.8610   -1.0800    0.5690 HC         1 E7A      0.005209
     45 1H37        7.1660    1.8660    0.2360 HC         1 E7A      0.049360
     46 2H37        8.6640    1.0870   -0.1390 HC         1 E7A      0.049360
     47 1H38        7.2500    1.4890   -2.1820 HC         1 E7A      0.005209
     48 2H38        7.6950   -0.1770   -1.9600 HC         1 E7A      0.005209
     49 1H39        5.0280    0.8820   -2.1900 HP         1 E7A      0.082082
     50 2H39        5.4780   -0.7910   -1.9430 HP         1 E7A      0.082082
@<TRIPOS>BOND
    1     1     2 1
    2     2     4 1
    3     2    17 1
    4     4     5 1
    5     4    16 1
    6     5     6 1
    7     6     7 1
    8     6    22 1
    9     7     8 1
   10     7    16 1
   11     8     9 1
   12     8    12 1
   13    12    13 1
   14    13    15 1
   15    15    16 1
   16    22    23 1
   17    22    26 1
   18    23    24 1
   19    24    25 1
   20    24    28 1
   21    25    26 1
   22    28    31 1
   23    31    32 1
   24    32    35 1
   25    32    39 1
   26    35    36 1
   27    36    37 1
   28    37    38 1
   29    38    39 1
   30     1    19 1
   31     2     3 1
   32     9    10 1
   33     9    11 1
   34    13    14 1
   35    17    18 1
   36    17    20 1
   37    17    21 1
   38    23    27 1
   39    28    29 1
   40    28    30 1
   41    31    33 1
   42    31    34 1
   43    32    40 1
   44    35    41 1
   45    35    42 1
   46    36    43 1
   47    36    44 1
   48    37    45 1
   49    37    46 1
   50    38    47 1
   51    38    48 1
   52    39    49 1
   53    39    50 1
@<TRIPOS>SUBSTRUCTURE
      1 E7A               1 ****               0 ****  **** 
