@<TRIPOS>MOLECULE
modXNA-fragment:EMU:HEAD01:@N1:HEAD01STRIP:@C1',H1',C2',H2'1,H2'2,H2'3,O4',HHO4
   41    42     1     0     0
SMALL
USER_CHARGES


@<TRIPOS>ATOM
      1 C1'         0.5360   -2.5510    0.4140 CT         1 EMU      0.335832
      2 C2'         0.8370   -2.8920    1.8680 CT         1 EMU     -0.394959
      3 O4'        -0.7930   -2.6820    0.0660 OH         1 EMU     -0.672472
      4 O4          3.2440    1.9860   -1.0520 O          1 EMU     -0.595208
      5 C4          2.5530    1.0660   -0.7160 C          1 EMU      0.573779
      6 N3          2.9430   -0.2160   -1.0150 NA         1 EMU     -0.660108
      7 C2          2.3310   -1.3780   -0.6560 C          1 EMU      0.557775
      8 O2          2.8420   -2.4350   -0.9020 O          1 EMU     -0.622429
      9 N1          1.1260   -1.2390    0.0020 N*         1 EMU     -0.241379
     10 C6          0.6230    0.0360    0.3260 CM         1 EMU      0.190695
     11 C5          1.2770    1.1720    0.0130 CM         1 EMU     -0.328204
     12 H1'         1.0550   -3.2540   -0.2020 H2         1 EMU      0.118802
     13 H2'1        1.9080   -2.8870    2.0290 HC         1 EMU      0.139989
     14 H2'2        0.4660   -3.8890    2.0750 HC         1 EMU      0.139989
     15 H3          3.8160   -0.3220   -1.4870 H          1 EMU      0.385300
     16 C16        -0.6980    0.0960    1.0690 CT         1 EMU     -0.179270
     17 C17         0.9100    2.6190    0.3730 CT         1 EMU      0.344146
     18 H2'3        0.3860   -2.2080    2.5790 HC         1 EMU      0.139989
     19 HHO4       -1.3820   -2.3510    0.7270 HO         1 EMU      0.421387
     20 C8         -1.9800    0.0620    0.2400 CA         1 EMU      0.164280
     21 H161       -0.7360   -0.6880    1.8120 HC         1 EMU      0.082143
     22 H162       -0.6990    1.0080    1.6410 HC         1 EMU      0.082143
     23 C23        -3.1910    0.1090    0.9250 CA         1 EMU     -0.155597
     24 C24        -4.3960    0.1030    0.2440 CA         1 EMU     -0.109818
     25 C25        -4.4080    0.0510   -1.1410 CA         1 EMU     -0.112933
     26 C26        -3.2090    0.0020   -1.8300 CA         1 EMU     -0.109818
     27 C27        -2.0030    0.0060   -1.1460 CA         1 EMU     -0.155597
     28 H23        -3.1920    0.1580    2.0020 HA         1 EMU      0.133973
     29 H24        -5.3200    0.1420    0.7930 HA         1 EMU      0.150782
     30 H25        -5.3410    0.0470   -1.6750 HA         1 EMU      0.144337
     31 H26        -3.2070   -0.0440   -2.9040 HA         1 EMU      0.150782
     32 H27        -1.0850   -0.0440   -1.7000 HA         1 EMU      0.133973
     33 C15        -0.4740    3.1200   -0.0630 CT         1 EMU     -0.307923
     34 H17         1.6150    3.2010   -0.2010 HC         1 EMU      0.005325
     35 C3          1.2070    2.9480    1.8450 CT         1 EMU     -0.307923
     36 H151       -0.4920    4.2030    0.0150 HC         1 EMU      0.092802
     37 H152       -1.2900    2.7440    0.5400 HC         1 EMU      0.092802
     38 H153       -0.6790    2.8620   -1.0960 HC         1 EMU      0.092802
     39 H171        1.0840    4.0130    2.0190 HC         1 EMU      0.092802
     40 H172        2.2300    2.6890    2.0970 HC         1 EMU      0.092802
     41 H173        0.5520    2.4290    2.5370 HC         1 EMU      0.092802
@<TRIPOS>BOND
    1     1     2 1
    2     1     3 1
    3     1     9 1
    4     4     5 1
    5     5     6 1
    6     5    11 1
    7     6     7 1
    8     7     8 1
    9     7     9 1
   10     9    10 1
   11    10    11 1
   12    10    16 1
   13    11    17 1
   14    16    20 1
   15    17    33 1
   16    17    35 1
   17    20    23 1
   18    20    27 1
   19    23    24 1
   20    24    25 1
   21    25    26 1
   22    26    27 1
   23     1    12 1
   24     2    13 1
   25     2    14 1
   26     2    18 1
   27     3    19 1
   28     6    15 1
   29    16    21 1
   30    16    22 1
   31    17    34 1
   32    23    28 1
   33    24    29 1
   34    25    30 1
   35    26    31 1
   36    27    32 1
   37    33    36 1
   38    33    37 1
   39    33    38 1
   40    35    39 1
   41    35    40 1
   42    35    41 1
@<TRIPOS>SUBSTRUCTURE
      1 EMU               1 ****               0 ****  **** 
