@<TRIPOS>MOLECULE
modXNA-fragment:EOQ:HEAD01:@N9:HEAD01STRIP:@C1',H1',O4',HHO4,C2',H2'1,H2'3,H2'2
   43    46     1     0     0
SMALL
USER_CHARGES


@<TRIPOS>ATOM
      1 O4'         2.2750    3.2900    1.4560 OH         1 EOQ     -0.747623
      2 C1'         2.6120    2.6200    0.2750 CT         1 EOQ      0.404402
      3 H1'         3.6800    2.4730    0.2100 H2         1 EOQ      0.013584
      4 N9          2.0310    1.3030    0.3780 N*         1 EOQ     -0.063304
      5 C8          0.7140    1.0230    0.7400 CA         1 EOQ     -0.243451
      6 H8          0.0710    1.8240    1.0330 H4         1 EOQ      0.259292
      7 C7          0.4950   -0.3060    0.6840 C*         1 EOQ     -0.017556
      8 C5          1.7440   -0.8860    0.2630 CB         1 EOQ     -0.404414
      9 C6          2.1710   -2.2230   -0.0050 C          1 EOQ      0.687333
     10 O6          1.5560   -3.2520    0.0590 O          1 EOQ     -0.653043
     11 N1          3.5210   -2.2530   -0.4070 NA         1 EOQ     -0.626719
     12 H1          3.8540   -3.1540   -0.6770 H          1 EOQ      0.417129
     13 C2          4.3220   -1.1640   -0.5450 CA         1 EOQ      0.753223
     14 N2          5.5850   -1.4030   -1.0010 N2         1 EOQ     -0.989034
     15 H21         6.1900   -0.6150   -0.9340 H          1 EOQ      0.414720
     16 H22         6.0110   -2.2690   -0.7550 H          1 EOQ      0.414720
     17 N3          3.9420    0.0410   -0.3090 NC         1 EOQ     -0.797972
     18 C4          2.6450    0.1420    0.0900 CB         1 EOQ      0.407142
     19 C2'         2.1130    3.3660   -0.9550 CT         1 EOQ     -0.375619
     20 H2'1        2.3650    2.8180   -1.8550 HC         1 EOQ      0.129656
     21 HHO4        2.5350    4.1990    1.3900 HO         1 EOQ      0.461508
     22 H2'2        2.5780    4.3470   -1.0170 HC         1 EOQ      0.129656
     23 H2'3        1.0380    3.4980   -0.9130 HC         1 EOQ      0.129656
     24 C10        -0.7490   -1.0830    1.0390 CT         1 EOQ      0.302365
     25 N10        -1.8700   -0.2930    1.5200 NT         1 EOQ     -0.845136
     26 1H10       -1.0650   -1.6620    0.1780 H1         1 EOQ      0.009184
     27 2H10       -0.4840   -1.8160    1.7930 H1         1 EOQ      0.009184
     28 C12        -2.8900    0.1570    0.5920 CT         1 EOQ      0.187821
     29 H10        -1.5590    0.4450    2.1150 H          1 EOQ      0.352309
     30 C31        -3.9070   -0.9560    0.3010 CT         1 EOQ     -0.029539
     31 C32        -4.6510   -0.5550   -0.9810 CT         1 EOQ      0.394393
     32 C33        -3.5910    0.2400   -1.7370 CT         1 EOQ     -0.033454
     33 C34        -2.5200    0.6240   -0.8190 CT         1 EOQ     -0.118251
     34 O45        -4.8070   -1.1940    1.3410 OH         1 EOQ     -0.644142
     35 O98        -5.7770    0.2230   -0.7290 OH         1 EOQ     -0.684803
     36 O41        -3.4460    1.5610   -1.3010 OS         1 EOQ     -0.306436
     37 H12        -3.4160    0.9750    1.0710 H1         1 EOQ      0.100913
     38 H31        -3.3470   -1.8630    0.0800 H1         1 EOQ      0.097149
     39 H32        -4.9270   -1.4420   -1.5470 H1         1 EOQ     -0.048051
     40 H33        -3.4460    0.0870   -2.7920 H1         1 EOQ      0.123585
     41 H34        -1.5000    0.7700   -1.1210 H1         1 EOQ      0.159734
     42 5HO4       -4.3120   -1.3040    2.1440 HO         1 EOQ      0.436008
     43 8HO9       -6.1730   -0.0890    0.0760 HO         1 EOQ      0.427247
@<TRIPOS>BOND
    1     1     2 1
    2     2     4 1
    3     2    19 1
    4     4     5 1
    5     4    18 1
    6     5     7 1
    7     7     8 1
    8     7    24 1
    9     8     9 1
   10     8    18 1
   11     9    10 1
   12     9    11 1
   13    11    13 1
   14    13    14 1
   15    13    17 1
   16    17    18 1
   17    24    25 1
   18    25    28 1
   19    28    30 1
   20    28    33 1
   21    30    31 1
   22    30    34 1
   23    31    32 1
   24    31    35 1
   25    32    33 1
   26    32    36 1
   27    33    36 1
   28     1    21 1
   29     2     3 1
   30     5     6 1
   31    11    12 1
   32    14    15 1
   33    14    16 1
   34    19    20 1
   35    19    22 1
   36    19    23 1
   37    24    26 1
   38    24    27 1
   39    25    29 1
   40    28    37 1
   41    30    38 1
   42    31    39 1
   43    32    40 1
   44    33    41 1
   45    34    42 1
   46    35    43 1
@<TRIPOS>SUBSTRUCTURE
      1 EOQ               1 ****               0 ****  **** 
