@<TRIPOS>MOLECULE
modXNA-fragment:F4F:HEAD01:@N1:HEAD01STRIP:@C1',H1',O4',HHO4,C2',H2'1,H2'3,H2'2
   23    24     1     0     0
SMALL
USER_CHARGES


@<TRIPOS>ATOM
      1 C1'        -2.7940   -0.4500   -0.1700 CT         1 F4F      0.254944
      2 C2'        -3.1810   -0.9220    1.2250 CT         1 F4F     -0.295973
      3 O4'        -3.8220    0.2710   -0.7750 OH         1 F4F     -0.761397
      4 C4          0.4360    1.2540    0.0060 CB         1 F4F      0.032663
      5 C2         -0.3300    0.0860   -0.1000 CB         1 F4F     -0.273470
      6 N1         -1.6520    0.4470   -0.1420 N*         1 F4F      0.349369
      7 C6         -1.7190    1.8190   -0.0490 CA         1 F4F     -0.231403
      8 C5         -0.4850    2.3540    0.0370 C*         1 F4F     -0.184855
      9 H1'        -2.5190   -1.2960   -0.7840 H2         1 F4F      0.055876
     10 H2'1       -4.0320   -1.5960    1.1730 HC         1 F4F      0.110040
     11 H2'2       -2.3610   -1.4580    1.6880 HC         1 F4F      0.110040
     12 H6         -2.6700    2.3020   -0.0740 H4         1 F4F      0.257010
     13 H5         -0.2400    3.3920    0.1020 HA         1 F4F      0.187163
     14 H2'3       -3.4450   -0.0730    1.8460 HC         1 F4F      0.110040
     15 HHO4       -4.6290   -0.2230   -0.7250 HO         1 F4F      0.490555
     16 C18         1.8230    1.1600    0.0580 CA         1 F4F      0.130769
     17 C19         2.4250   -0.0630    0.0150 CA         1 F4F      0.071180
     18 C20         1.6520   -1.2240   -0.0780 CA         1 F4F      0.096890
     19 C21         0.2890   -1.1610   -0.1340 CA         1 F4F      0.172579
     20 F10        -0.4160   -2.2870   -0.2090 F          1 F4F     -0.171607
     21 F9          2.5610    2.2540    0.1530 F          1 F4F     -0.151559
     22 F2          3.7410   -0.1790    0.0650 F          1 F4F     -0.142183
     23 F11         2.2630   -2.3940   -0.1090 F          1 F4F     -0.145091
@<TRIPOS>BOND
    1     1     2 1
    2     1     3 1
    3     1     6 1
    4     4     5 1
    5     4     8 1
    6     4    16 1
    7     5     6 1
    8     5    19 1
    9     6     7 1
   10     7     8 1
   11    16    17 1
   12    16    21 1
   13    17    18 1
   14    17    22 1
   15    18    19 1
   16    18    23 1
   17    19    20 1
   18     1     9 1
   19     2    10 1
   20     2    11 1
   21     2    14 1
   22     3    15 1
   23     7    12 1
   24     8    13 1
@<TRIPOS>SUBSTRUCTURE
      1 F4F               1 ****               0 ****  **** 
