@<TRIPOS>MOLECULE
modXNA-fragment:F5C:HEAD01:@N1:HEAD01STRIP:@C1',H1',O4',HHO4,C2',H2'1,H2'3,H2'2
   22    22     1     0     0
SMALL
USER_CHARGES


@<TRIPOS>ATOM
      1 O4'         2.3970   -1.7090   -0.7280 OH         1 F5C     -0.754099
      2 C1'         2.3880   -0.4040   -0.2250 CT         1 F5C      0.359521
      3 H1'         2.8490    0.2790   -0.9200 H2         1 F5C      0.032856
      4 N1          0.9750   -0.0130   -0.1490 N*         1 F5C     -0.217183
      5 C6          0.0000   -0.9150   -0.0610 CM         1 F5C      0.047255
      6 H6          0.3040   -1.9420   -0.0640 H4         1 F5C      0.226896
      7 C5         -1.3080   -0.5580    0.0150 CM         1 F5C     -0.398390
      8 C8         -2.3270   -1.5940    0.1020 C          1 F5C      0.436832
      9 C4         -1.5690    0.8700   -0.0130 CA         1 F5C      0.766666
     10 N4         -2.8230    1.3060    0.0470 N2         1 F5C     -1.060985
     11 H41        -2.9790    2.2880    0.0220 H          1 F5C      0.467217
     12 H42        -3.5830    0.6660    0.1090 H          1 F5C      0.467217
     13 N3         -0.6140    1.7520   -0.0950 NC         1 F5C     -0.906081
     14 C2          0.6830    1.3820   -0.1570 C          1 F5C      0.705667
     15 O2          1.6110    2.1380   -0.2140 O          1 F5C     -0.637167
     16 C2'         3.0640   -0.3190    1.1340 CT         1 F5C     -0.320188
     17 H2'1        2.5890   -1.0010    1.8320 HC         1 F5C      0.117495
     18 HHO4        3.2930   -1.9900   -0.8560 HO         1 F5C      0.477353
     19 H2'2        4.1110   -0.5930    1.0440 HC         1 F5C      0.117495
     20 H2'3        3.0090    0.6900    1.5170 HC         1 F5C      0.117495
     21 O10        -3.5090   -1.4120    0.1700 O          1 F5C     -0.549571
     22 H8         -1.9340   -2.6150    0.1020 HA         1 F5C     -0.000731
@<TRIPOS>BOND
    1     1     2 1
    2     2     4 1
    3     2    16 1
    4     4     5 1
    5     4    14 1
    6     5     7 1
    7     7     8 1
    8     7     9 1
    9     8    21 1
   10     9    10 1
   11     9    13 1
   12    13    14 1
   13    14    15 1
   14     1    18 1
   15     2     3 1
   16     5     6 1
   17     8    22 1
   18    10    11 1
   19    10    12 1
   20    16    17 1
   21    16    19 1
   22    16    20 1
@<TRIPOS>SUBSTRUCTURE
      1 F5C               1 ****               0 ****  **** 
