@<TRIPOS>MOLECULE
modXNA-fragment:F6A:HEAD01:@N9:HEAD01STRIP:@C1',H1',O4',HHO4,C2',H2'1,H2'3,H2'2
   24    25     1     0     0
SMALL
USER_CHARGES


@<TRIPOS>ATOM
      1 O4'        -3.8520   -0.9110    0.7560 OH         1 F6A     -0.728736
      2 C1'        -3.1370    0.1370    0.1780 CT         1 F6A      0.303712
      3 H1'        -3.1370    1.0080    0.8210 H2         1 F6A      0.069061
      4 N9         -1.7620   -0.3240    0.1170 N*         1 F6A     -0.165995
      5 C8         -1.3070   -1.6150   -0.0070 CK         1 F6A      0.221330
      6 H8         -1.9920   -2.4340   -0.0340 H5         1 F6A      0.160850
      7 N7         -0.0300   -1.7150   -0.0620 NB         1 F6A     -0.626967
      8 C5          0.4140   -0.4120    0.0270 CB         1 F6A     -0.019280
      9 C6          1.6780    0.1690    0.0290 CA         1 F6A      0.455178
     10 N6          2.8030   -0.6040   -0.0740 N2         1 F6A     -0.535366
     11 C11         4.1010   -0.1500   -0.0840 C          1 F6A      0.478108
     12 H6          2.6780   -1.5920   -0.1460 H          1 F6A      0.362840
     13 N1          1.7850    1.4820    0.1300 NC         1 F6A     -0.744146
     14 C2          0.6720    2.2030    0.2270 CQ         1 F6A      0.469880
     15 H2          0.8180    3.2640    0.3050 H5         1 F6A      0.054223
     16 N3         -0.5700    1.7810    0.2360 NC         1 F6A     -0.771617
     17 C4         -0.6490    0.4610    0.1370 CB         1 F6A      0.400689
     18 C2'        -3.6680    0.5040   -1.1990 CT         1 F6A     -0.353873
     19 H2'1       -3.6510   -0.3610   -1.8510 HC         1 F6A      0.133840
     20 HHO4       -4.7780   -0.7090    0.7500 HO         1 F6A      0.478590
     21 H2'2       -4.6900    0.8650   -1.1230 HC         1 F6A      0.133840
     22 H2'3       -3.0670    1.2920   -1.6370 HC         1 F6A      0.133840
     23 O9          5.0300   -0.8870   -0.1760 O          1 F6A     -0.564513
     24 H11         4.1870    0.9250   -0.0000 HA         1 F6A      0.036910
@<TRIPOS>BOND
    1     1     2 1
    2     2     4 1
    3     2    18 1
    4     4     5 1
    5     4    17 1
    6     5     7 1
    7     7     8 1
    8     8     9 1
    9     8    17 1
   10     9    10 1
   11     9    13 1
   12    10    11 1
   13    11    23 1
   14    13    14 1
   15    14    16 1
   16    16    17 1
   17     1    20 1
   18     2     3 1
   19     5     6 1
   20    10    12 1
   21    11    24 1
   22    14    15 1
   23    18    19 1
   24    18    21 1
   25    18    22 1
@<TRIPOS>SUBSTRUCTURE
      1 F6A               1 ****               0 ****  **** 
