@<TRIPOS>MOLECULE
modXNA-fragment:FDU:HEAD01:@N1:HEAD01STRIP:@C1',H1',O4',HHO4,C2',H2'1,H2'3,H2'2
   19    19     1     0     0
SMALL
USER_CHARGES


@<TRIPOS>ATOM
      1 O4'        -2.4050   -1.2650    0.9180 OH         1 FDU     -0.722998
      2 C1'        -2.1700   -0.0980    0.1890 CT         1 FDU      0.302858
      3 H1'        -2.5400    0.7660    0.7180 H2         1 FDU      0.060746
      4 N1         -0.7150    0.0530    0.1410 N*         1 FDU     -0.141323
      5 C6          0.1020   -1.0580    0.0290 CM         1 FDU     -0.120299
      6 H6         -0.3890   -2.0070    0.0350 H4         1 FDU      0.261342
      7 C5          1.4170   -0.9550   -0.0540 CM         1 FDU      0.029205
      8 F5          2.1930   -2.0230   -0.1540 F          1 FDU     -0.174461
      9 C4          2.0810    0.3460   -0.0300 C          1 FDU      0.579320
     10 O4          3.2540    0.5360   -0.0950 O          1 FDU     -0.567892
     11 N3          1.1730    1.3860    0.0780 NA         1 FDU     -0.716165
     12 H3          1.5550    2.3080    0.0890 H          1 FDU      0.404141
     13 C2         -0.1970    1.3230    0.1480 C          1 FDU      0.570393
     14 O2         -0.8740    2.3100    0.2010 O          1 FDU     -0.608614
     15 C2'        -2.7740   -0.1640   -1.2050 CT         1 FDU     -0.315397
     16 H2'1       -2.3800   -1.0120   -1.7530 HC         1 FDU      0.118422
     17 HHO4       -3.3380   -1.4100    0.9940 HO         1 FDU      0.473538
     18 H2'2       -3.8530   -0.2680   -1.1410 HC         1 FDU      0.118422
     19 H2'3       -2.5570    0.7460   -1.7500 HC         1 FDU      0.118422
@<TRIPOS>BOND
    1     1     2 1
    2     2     4 1
    3     2    15 1
    4     4     5 1
    5     4    13 1
    6     5     7 1
    7     7     8 1
    8     7     9 1
    9     9    10 1
   10     9    11 1
   11    11    13 1
   12    13    14 1
   13     1    17 1
   14     2     3 1
   15     5     6 1
   16    11    12 1
   17    15    16 1
   18    15    18 1
   19    15    19 1
@<TRIPOS>SUBSTRUCTURE
      1 FDU               1 ****               0 ****  **** 
