@<TRIPOS>MOLECULE
modXNA-fragment:FHU:HEAD01:@C1:HEAD01STRIP:@C1',H1',O4',HHO4,C2',H2'1,H2'3,H2'2
   22    22     1     0     0
SMALL
USER_CHARGES


@<TRIPOS>ATOM
      1 O4'        -2.6700   -0.5610    0.9510 OH         1 FHU     -0.642464
      2 C1'        -2.0010    0.3100    0.0910 CT         1 FHU      0.239889
      3 H1'        -2.1800    1.3350    0.3980 H1         1 FHU      0.028114
      4 C1         -0.4820    0.1200    0.2160 CT         1 FHU      0.097383
      5 C6          0.0680   -1.2550   -0.1970 C          1 FHU      0.514034
      6 O6         -0.5930   -2.2180   -0.4040 O          1 FHU     -0.519785
      7 N7          1.4400   -1.2910   -0.2790 N          1 FHU     -0.726978
      8 H7          1.8590   -2.1950   -0.3540 H          1 FHU      0.400128
      9 C4          2.3230   -0.2360   -0.0850 C          1 FHU      0.695365
     10 O4          3.4840   -0.4220    0.1190 O          1 FHU     -0.624147
     11 N3          1.7460    0.9820   -0.1940 N          1 FHU     -0.842066
     12 H3          2.2870    1.7580    0.1180 H          1 FHU      0.425559
     13 C2          0.3470    1.1950   -0.4860 CT         1 FHU      0.410238
     14 O2         -0.0270    2.4480   -0.0370 OH         1 FHU     -0.677077
     15 C2'        -2.5620    0.1000   -1.3060 CT         1 FHU     -0.318814
     16 H2'1       -2.4000   -0.9140   -1.6410 HC         1 FHU      0.119748
     17 HHO4       -2.3640   -0.4260    1.8380 HO         1 FHU      0.411260
     18 H2'2       -3.6290    0.2820   -1.2750 HC         1 FHU      0.119748
     19 H2'3       -2.1280    0.7920   -2.0220 HC         1 FHU      0.119748
     20 F8         -0.1950    0.2160    1.5640 F          1 FHU     -0.209432
     21 H2          0.1790    1.1070   -1.5550 H2         1 FHU      0.012643
     22 HO2         0.1230    3.0970   -0.7110 HO         1 FHU      0.449613
@<TRIPOS>BOND
    1     1     2 1
    2     2     4 1
    3     2    15 1
    4     4     5 1
    5     4    13 1
    6     4    20 1
    7     5     6 1
    8     5     7 1
    9     7     9 1
   10     9    10 1
   11     9    11 1
   12    11    13 1
   13    13    14 1
   14     1    17 1
   15     2     3 1
   16     7     8 1
   17    11    12 1
   18    13    21 1
   19    14    22 1
   20    15    16 1
   21    15    18 1
   22    15    19 1
@<TRIPOS>SUBSTRUCTURE
      1 FHU               1 ****               0 ****  **** 
