@<TRIPOS>MOLECULE
modXNA-fragment:FMC:HEAD01:@N1:HEAD01STRIP:@C1',H1',O4',HHO4,C2',H2'1,H2'3,H2'2
   22    22     1     0     0
SMALL
USER_CHARGES


@<TRIPOS>ATOM
      1 O4'         2.2500    1.6280    0.8220 OH         1 FMC     -0.755820
      2 C1'         2.2750    0.3570    0.2460 CT         1 FMC      0.348823
      3 H1'         2.7590   -0.3520    0.8990 H2         1 FMC      0.047201
      4 N1          0.8720   -0.0700    0.1560 N*         1 FMC     -0.297521
      5 C6         -0.1230    0.8090    0.0740 CM         1 FMC      0.213580
      6 H6          0.1370    1.8470    0.0870 H4         1 FMC      0.205217
      7 C5         -1.4250    0.4200   -0.0170 CM         1 FMC     -0.473282
      8 C8         -2.4570    1.4500   -0.1530 C          1 FMC      0.457990
      9 C4         -1.6460   -1.0040    0.0060 CA         1 FMC      0.685269
     10 N4         -2.8940   -1.5110   -0.0660 N2         1 FMC     -0.992885
     11 H41        -2.9700   -2.4950    0.0700 H          1 FMC      0.429629
     12 H42        -3.6920   -0.9640    0.1510 H          1 FMC      0.429629
     13 N3         -0.6760   -1.8640    0.0730 NC         1 FMC     -0.838683
     14 C2          0.6170   -1.4670    0.1210 C          1 FMC      0.704759
     15 O2          1.5570   -2.2080    0.1400 O          1 FMC     -0.638521
     16 C2'         2.9420    0.3620   -1.1200 CT         1 FMC     -0.321073
     17 H2'1        2.9100   -0.6270   -1.5560 HC         1 FMC      0.119823
     18 HHO4        3.1310    1.9720    0.8700 HO         1 FMC      0.482413
     19 H2'2        2.4450    1.0670   -1.7780 HC         1 FMC      0.119823
     20 H2'3        3.9830    0.6560   -1.0230 HC         1 FMC      0.119823
     21 O9         -2.2370    2.6240   -0.1540 O          1 FMC     -0.546849
     22 H8         -3.4860    1.0990   -0.2690 HA         1 FMC     -0.009684
@<TRIPOS>BOND
    1     1     2 1
    2     2     4 1
    3     2    16 1
    4     4     5 1
    5     4    14 1
    6     5     7 1
    7     7     8 1
    8     7     9 1
    9     8    21 1
   10     9    10 1
   11     9    13 1
   12    13    14 1
   13    14    15 1
   14     1    18 1
   15     2     3 1
   16     5     6 1
   17     8    22 1
   18    10    11 1
   19    10    12 1
   20    16    17 1
   21    16    19 1
   22    16    20 1
@<TRIPOS>SUBSTRUCTURE
      1 FMC               1 ****               0 ****  **** 
