@<TRIPOS>MOLECULE
modXNA-fragment:FQC:HEAD01:@N1:HEAD01STRIP:@C1',H1',C2',H2'1,H2'2,H2'3,O4',HHO4
   28    28     1     0     0
SMALL
USER_CHARGES


@<TRIPOS>ATOM
      1 C1'        -3.1260    0.0530   -0.0150 CT         1 FQC      0.383843
      2 C2'        -3.5530   -0.1260    1.4320 CT         1 FQC     -0.348435
      3 O4'        -3.4840    1.3090   -0.5120 OH         1 FQC     -0.749570
      4 N4          2.3320   -0.5960   -0.5850 N2         1 FQC     -0.802923
      5 C4          0.9710   -0.3570   -0.3890 CA         1 FQC      0.660120
      6 N3          0.2330   -1.4120   -0.3790 NC         1 FQC     -0.843509
      7 C2         -1.1250   -1.3280   -0.2520 C          1 FQC      0.732997
      8 O2         -1.8480   -2.2830   -0.2000 O          1 FQC     -0.648766
      9 N1         -1.6690   -0.0460   -0.1570 N*         1 FQC     -0.341274
     10 C6         -0.8850    1.0530   -0.2180 CM         1 FQC      0.051944
     11 C5          0.4580    0.9860   -0.3300 CM         1 FQC     -0.234256
     12 H1'        -3.5380   -0.7330   -0.6280 H2         1 FQC      0.036437
     13 H2'1       -4.6350   -0.0710    1.5100 HC         1 FQC      0.126057
     14 H2'2       -3.2360   -1.0920    1.8000 HC         1 FQC      0.126057
     15 C15         3.4220   -0.2640    0.1990 C          1 FQC      0.644153
     16 H4          2.5030   -1.4320   -1.1080 H          1 FQC      0.406627
     17 H6         -1.4050    1.9880   -0.2090 H4         1 FQC      0.230783
     18 C18         1.2850    2.2330   -0.5400 CT         1 FQC     -0.229561
     19 H2'3       -3.1250    0.6580    2.0490 HC         1 FQC      0.126057
     20 HHO4       -4.4280    1.3810   -0.5260 HO         1 FQC      0.473101
     21 O9          4.5000   -0.6800   -0.1010 O          1 FQC     -0.614104
     22 C10         3.2340    0.5700    1.4460 CT         1 FQC     -0.250352
     23 H101        3.6780    1.5450    1.2920 HC         1 FQC      0.096910
     24 H102        3.7900    0.0790    2.2340 HC         1 FQC      0.096910
     25 H103        2.2050    0.6850    1.7520 HC         1 FQC      0.096910
     26 H181        0.6650    3.0220   -0.9480 HC         1 FQC      0.109479
     27 H182        2.0870    2.0520   -1.2470 HC         1 FQC      0.109479
     28 H183        1.7270    2.6110    0.3750 HC         1 FQC      0.109479
@<TRIPOS>BOND
    1     1     2 1
    2     1     3 1
    3     1     9 1
    4     4     5 1
    5     4    15 1
    6     5     6 1
    7     5    11 1
    8     6     7 1
    9     7     8 1
   10     7     9 1
   11     9    10 1
   12    10    11 1
   13    11    18 1
   14    15    21 1
   15    15    22 1
   16     1    12 1
   17     2    13 1
   18     2    14 1
   19     2    19 1
   20     3    20 1
   21     4    16 1
   22    10    17 1
   23    18    26 1
   24    18    27 1
   25    18    28 1
   26    22    23 1
   27    22    24 1
   28    22    25 1
@<TRIPOS>SUBSTRUCTURE
      1 FQC               1 ****               0 ****  **** 
