@<TRIPOS>MOLECULE
modXNA-fragment:FRC:HEAD01:@N1:HEAD01STRIP:@C1',H1',C2',H2'1,H2'2,H2'3,O4',HHO4
   49    51     1     0     0
SMALL
USER_CHARGES


@<TRIPOS>ATOM
      1 C1'        -3.1160    3.0750   -0.3980 CT         1 FRC      0.374741
      2 C2'        -2.6640    3.5320   -1.7760 CT         1 FRC     -0.302171
      3 O4'        -4.4200    2.5660   -0.4230 OH         1 FRC     -0.768775
      4 N4          0.2330   -0.8090    1.5690 N2         1 FRC     -0.700062
      5 C4         -0.5900    0.1310    1.0690 CA         1 FRC      0.656528
      6 N3         -0.2930    1.3840    1.2510 NC         1 FRC     -0.685996
      7 C2         -1.0850    2.3760    0.7780 C          1 FRC      0.591214
      8 O2         -0.8230    3.5470    0.8780 O          1 FRC     -0.641595
      9 N1         -2.2660    2.0040    0.1190 N*         1 FRC     -0.251336
     10 C6         -2.5830    0.7020   -0.0610 CM         1 FRC      0.165892
     11 C5         -1.7950   -0.2900    0.3820 CM         1 FRC     -0.500701
     12 H1'        -3.0380    3.8850    0.3080 H2         1 FRC      0.027590
     13 H2'1       -1.6460    3.8940   -1.7300 HC         1 FRC      0.107959
     14 H2'2       -3.2970    4.3410   -2.1300 HC         1 FRC      0.107959
     15 H4          0.1620   -1.7070    1.1450 H          1 FRC      0.364383
     16 C16         1.5040   -0.4950    2.2120 CT         1 FRC      0.093504
     17 H6         -3.5100    0.5060   -0.5550 H4         1 FRC      0.174590
     18 C18        -2.2050   -1.7320    0.2700 CT         1 FRC      0.473384
     19 H2'3       -2.7260    2.7120   -2.4840 HC         1 FRC      0.107959
     20 HHO4       -5.0110    3.2420   -0.7250 HO         1 FRC      0.476171
     21 H161        1.3670    0.4130    2.7750 H1         1 FRC      0.053591
     22 H162        1.7010   -1.2950    2.9170 H1         1 FRC      0.053591
     23 C11         2.6740   -0.3620    1.2580 CA         1 FRC     -0.064057
     24 C24         2.9850    0.8490    0.6610 CA         1 FRC     -0.057854
     25 C25         4.0510    0.9700   -0.2210 CA         1 FRC     -0.289106
     26 C26         4.8290   -0.1390   -0.5180 CA         1 FRC      0.388730
     27 C27         4.5320   -1.3620    0.0760 CA         1 FRC     -0.289106
     28 C28         3.4710   -1.4620    0.9510 CA         1 FRC     -0.057854
     29 H24         2.3840    1.7130    0.8780 HA         1 FRC      0.146542
     30 H25         4.2580    1.9270   -0.6590 HA         1 FRC      0.173353
     31 O252        5.8860   -0.1330   -1.3580 OS         1 FRC     -0.426916
     32 H27         5.1480   -2.2110   -0.1560 HA         1 FRC      0.173353
     33 H28         3.2650   -2.4150    1.4090 HA         1 FRC      0.146542
     34 C15         6.2590    1.0570   -1.9910 CT         1 FRC      0.081726
     35 H151        7.1170    0.8180   -2.6020 H1         1 FRC      0.044572
     36 H152        6.5350    1.8210   -1.2720 H1         1 FRC      0.044572
     37 H153        5.4640    1.4350   -2.6260 H1         1 FRC      0.044572
     38 O38        -3.3840   -1.8170   -0.4490 OS         1 FRC     -0.422231
     39 C39        -3.8590   -3.1330   -0.5960 CT         1 FRC      0.136779
     40 C40        -2.7930   -3.9960   -1.2570 CT         1 FRC     -0.064069
     41 C41        -1.4910   -3.8330   -0.4850 CT         1 FRC      0.136779
     42 O42        -1.1860   -2.4650   -0.3460 OS         1 FRC     -0.422231
     43 H258       -2.3670   -2.1600    1.2620 H2         1 FRC     -0.017351
     44 H261       -4.1260   -3.5350    0.3810 H1         1 FRC      0.011815
     45 H262       -4.7580   -3.0700   -1.1920 H1         1 FRC      0.011815
     46 H263       -3.0990   -5.0380   -1.2750 HC         1 FRC      0.050994
     47 H264       -2.6470   -3.6660   -2.2800 HC         1 FRC      0.050994
     48 H265       -1.5720   -4.2920    0.5000 H1         1 FRC      0.011815
     49 H266       -0.6540   -4.2830   -1.0000 H1         1 FRC      0.011815
@<TRIPOS>BOND
    1     1     2 1
    2     1     3 1
    3     1     9 1
    4     4     5 1
    5     4    16 1
    6     5     6 1
    7     5    11 1
    8     6     7 1
    9     7     8 1
   10     7     9 1
   11     9    10 1
   12    10    11 1
   13    11    18 1
   14    16    23 1
   15    18    38 1
   16    18    42 1
   17    23    24 1
   18    23    28 1
   19    24    25 1
   20    25    26 1
   21    26    27 1
   22    26    31 1
   23    27    28 1
   24    31    34 1
   25    38    39 1
   26    39    40 1
   27    40    41 1
   28    41    42 1
   29     1    12 1
   30     2    13 1
   31     2    14 1
   32     2    19 1
   33     3    20 1
   34     4    15 1
   35    10    17 1
   36    16    21 1
   37    16    22 1
   38    18    43 1
   39    24    29 1
   40    25    30 1
   41    27    32 1
   42    28    33 1
   43    34    35 1
   44    34    36 1
   45    34    37 1
   46    39    44 1
   47    39    45 1
   48    40    46 1
   49    40    47 1
   50    41    48 1
   51    41    49 1
@<TRIPOS>SUBSTRUCTURE
      1 FRC               1 ****               0 ****  **** 
