@<TRIPOS>MOLECULE
modXNA-fragment:FSC:HEAD01:@N1:HEAD01STRIP:@C1',H1',C2',H2'1,H2'2,H2'3,O4',HHO4
   43    43     1     0     0
SMALL
USER_CHARGES


@<TRIPOS>ATOM
      1 C1'        -3.3190   -2.0790   -0.6370 CT         1 FSC      0.312479
      2 C2'        -3.5090   -2.2500   -2.1360 CT         1 FSC     -0.327066
      3 O4'        -2.6910   -3.1880   -0.0640 OH         1 FSC     -0.744471
      4 N4         -0.2770    2.3590    0.5660 N2         1 FSC     -0.704078
      5 C4         -1.0220    1.2540    0.2500 CA         1 FSC      0.637794
      6 N3         -2.2810    1.3950    0.0190 NC         1 FSC     -0.729011
      7 C2         -3.0720    0.3350   -0.3050 C          1 FSC      0.636115
      8 O2         -4.2390    0.4300   -0.5640 O          1 FSC     -0.628582
      9 N1         -2.4660   -0.9260   -0.3310 N*         1 FSC     -0.248195
     10 C6         -1.1430   -1.0660   -0.1090 CM         1 FSC      0.174625
     11 C5         -0.3440   -0.0210    0.1810 CM         1 FSC     -0.517641
     12 H1'        -4.2650   -1.8830   -0.1590 H2         1 FSC      0.063584
     13 H2'1       -4.1590   -3.0980   -2.3330 HC         1 FSC      0.122734
     14 H2'2       -3.9650   -1.3670   -2.5600 HC         1 FSC      0.122734
     15 C15        -0.6090    3.7150    0.7000 C          1 FSC      0.628500
     16 H4          0.6740    2.2200    0.8280 H          1 FSC      0.357266
     17 H6         -0.7660   -2.0650   -0.1600 H4         1 FSC      0.199014
     18 C18         1.1440   -0.2120    0.4030 CT         1 FSC      0.376474
     19 H2'3       -2.5530   -2.4340   -2.6160 HC         1 FSC      0.122734
     20 HHO4       -3.2690   -3.9370   -0.1170 HO         1 FSC      0.480156
     21 O9          0.2740    4.4430    1.0360 O          1 FSC     -0.594262
     22 C10        -2.0030    4.2020    0.4160 CT         1 FSC     -0.364886
     23 H101       -2.3100    3.9450   -0.5880 HC         1 FSC      0.146730
     24 H102       -1.9920    5.2740    0.5490 HC         1 FSC      0.146730
     25 H103       -2.7150    3.7430    1.0870 HC         1 FSC      0.146730
     26 C11         1.9400    0.0450   -0.8670 CT         1 FSC      0.036010
     27 O12         1.4190   -1.5480    0.7780 OS         1 FSC     -0.523783
     28 H18         1.5090    0.4340    1.1860 H1         1 FSC      0.066630
     29 C13         1.5650   -1.8280    2.0810 C          1 FSC      0.678528
     30 C7          1.9490   -3.2660    2.2820 CT         1 FSC     -0.390005
     31 O14         1.4070   -1.0270    2.9390 O          1 FSC     -0.593896
     32 H131        2.0370   -3.4690    3.3380 HC         1 FSC      0.150608
     33 H132        2.8930   -3.4590    1.7850 HC         1 FSC      0.150608
     34 H133        1.2010   -3.9130    1.8390 HC         1 FSC      0.150608
     35 C16         4.2970    0.1050   -1.4060 C          1 FSC      0.745814
     36 H111        1.6800    1.0170   -1.2680 H1         1 FSC      0.056935
     37 H112        1.6940   -0.7140   -1.5990 H1         1 FSC      0.056935
     38 C3          3.9330    0.3670   -2.8490 CT         1 FSC     -0.420911
     39 O19         5.4130   -0.0020   -1.0320 O          1 FSC     -0.614061
     40 H181        4.8480    0.4620   -3.4120 HC         1 FSC      0.152036
     41 H182        3.3540    1.2790   -2.9480 HC         1 FSC      0.152036
     42 H183        3.3460   -0.4480   -3.2580 HC         1 FSC      0.152036
     43 O43         3.3010   -0.0050   -0.5170 OS         1 FSC     -0.518912
@<TRIPOS>BOND
    1     1     2 1
    2     1     3 1
    3     1     9 1
    4     4     5 1
    5     4    15 1
    6     5     6 1
    7     5    11 1
    8     6     7 1
    9     7     8 1
   10     7     9 1
   11     9    10 1
   12    10    11 1
   13    11    18 1
   14    15    21 1
   15    15    22 1
   16    18    26 1
   17    18    27 1
   18    26    43 1
   19    27    29 1
   20    29    30 1
   21    29    31 1
   22    35    38 1
   23    35    39 1
   24    35    43 1
   25     1    12 1
   26     2    13 1
   27     2    14 1
   28     2    19 1
   29     3    20 1
   30     4    16 1
   31    10    17 1
   32    18    28 1
   33    22    23 1
   34    22    24 1
   35    22    25 1
   36    26    36 1
   37    26    37 1
   38    30    32 1
   39    30    33 1
   40    30    34 1
   41    38    40 1
   42    38    41 1
   43    38    42 1
@<TRIPOS>SUBSTRUCTURE
      1 FSC               1 ****               0 ****  **** 
