@<TRIPOS>MOLECULE
modXNA-fragment:FTC:HEAD01:@N1:HEAD01STRIP:@C1',H1',C2',H2'1,H2'2,H2'3,O4',HHO4
   35    36     1     0     0
SMALL
USER_CHARGES


@<TRIPOS>ATOM
      1 C1'        -4.5510   -0.1300   -0.3240 CT         1 FTC      0.388921
      2 C2'        -5.1660   -0.7410    0.9250 CT         1 FTC     -0.342154
      3 O4'        -5.0520    1.1530   -0.5730 OH         1 FTC     -0.758477
      4 N4          0.9280    0.2490    0.1150 N2         1 FTC     -0.666250
      5 C4         -0.4470    0.1360    0.0310 CA         1 FTC      0.570919
      6 N3         -0.9630   -0.9690   -0.3630 NC         1 FTC     -0.753930
      7 C2         -2.3170   -1.1090   -0.4720 C          1 FTC      0.702357
      8 O2         -2.8570   -2.1310   -0.7930 O          1 FTC     -0.646756
      9 N1         -3.1010    0.0150   -0.1930 N*         1 FTC     -0.306567
     10 C6         -2.5390    1.1760    0.2200 CM         1 FTC     -0.011883
     11 C5         -1.2120    1.3190    0.3600 CM         1 FTC     -0.165521
     12 H1'        -4.7120   -0.7740   -1.1730 H2         1 FTC      0.028561
     13 H2'1       -4.7390   -1.7180    1.1110 HC         1 FTC      0.123476
     14 H2'2       -6.2390   -0.8580    0.7950 HC         1 FTC      0.123476
     15 H4          1.2830    1.1680    0.2340 H          1 FTC      0.288951
     16 C16         1.8740   -0.7690    0.2170 C          1 FTC      0.578261
     17 H6         -3.2230    1.9740    0.4190 H4         1 FTC      0.244197
     18 C18        -0.5880    2.6100    0.8290 CT         1 FTC     -0.203810
     19 H2'3       -4.9920   -0.1000    1.7820 HC         1 FTC      0.123476
     20 HHO4       -5.9840    1.0970   -0.7350 HO         1 FTC      0.472095
     21 O8          1.6170   -1.8950    0.4840 O          1 FTC     -0.514559
     22 C10         3.2890   -0.3020    0.0230 CA         1 FTC     -0.086210
     23 C24         4.2940   -1.0180    0.6640 CA         1 FTC     -0.078162
     24 C25         5.6170   -0.6440    0.5190 CA         1 FTC     -0.116125
     25 C26         5.9490    0.4380   -0.2840 CA         1 FTC     -0.075311
     26 C27         4.9550    1.1420   -0.9430 CA         1 FTC     -0.116125
     27 C28         3.6280    0.7760   -0.7870 CA         1 FTC     -0.078162
     28 H24         4.0250   -1.8620    1.2690 HA         1 FTC      0.135813
     29 H25         6.3890   -1.1960    1.0250 HA         1 FTC      0.141182
     30 H26         6.9780    0.7250   -0.4020 HA         1 FTC      0.136263
     31 H27         5.2110    1.9690   -1.5810 HA         1 FTC      0.141182
     32 H28         2.8690    1.3120   -1.3280 HA         1 FTC      0.135813
     33 H81         0.0000    2.4740    1.7320 HC         1 FTC      0.093231
     34 H82         0.0560    3.0570    0.0760 HC         1 FTC      0.093231
     35 H83        -1.3600    3.3360    1.0540 HC         1 FTC      0.093231
@<TRIPOS>BOND
    1     1     2 1
    2     1     3 1
    3     1     9 1
    4     4     5 1
    5     4    16 1
    6     5     6 1
    7     5    11 1
    8     6     7 1
    9     7     8 1
   10     7     9 1
   11     9    10 1
   12    10    11 1
   13    11    18 1
   14    16    21 1
   15    16    22 1
   16    22    23 1
   17    22    27 1
   18    23    24 1
   19    24    25 1
   20    25    26 1
   21    26    27 1
   22     1    12 1
   23     2    13 1
   24     2    14 1
   25     2    19 1
   26     3    20 1
   27     4    15 1
   28    10    17 1
   29    18    33 1
   30    18    34 1
   31    18    35 1
   32    23    28 1
   33    24    29 1
   34    25    30 1
   35    26    31 1
   36    27    32 1
@<TRIPOS>SUBSTRUCTURE
      1 FTC               1 ****               0 ****  **** 
