@<TRIPOS>MOLECULE
modXNA-fragment:FUC:HEAD01:@N1:HEAD01STRIP:@C1',H1',C2',H2'1,H2'2,H2'3,O4',HHO4
   24    25     1     0     0
SMALL
USER_CHARGES


@<TRIPOS>ATOM
      1 C1'         3.0280   -0.2430   -0.0320 CT         1 FUC      0.444041
      2 C2'         3.4440   -0.4210    1.4140 CT         1 FUC     -0.296661
      3 O4'         3.3180   -1.4150   -0.7200 OH         1 FUC     -0.703511
      4 N4         -2.3360    0.9250   -0.2240 N          1 FUC     -0.813773
      5 C4         -0.9910    0.6650   -0.2120 CA         1 FUC      0.683460
      6 N3         -0.1680    1.6490   -0.2160 NC         1 FUC     -0.841265
      7 C2          1.1780    1.3970   -0.1750 C          1 FUC      0.728781
      8 O2          2.0090    2.2580   -0.1490 O          1 FUC     -0.633658
      9 N1          1.5820    0.0510   -0.1440 N*         1 FUC     -0.414632
     10 C6          0.6850   -0.9620   -0.1420 CM         1 FUC      0.013412
     11 C5         -0.6320   -0.7170   -0.1950 CM         1 FUC     -0.278857
     12 H1'         3.5280    0.6050   -0.4660 H2         1 FUC      0.009767
     13 H2'1        4.5110   -0.6020    1.4650 HC         1 FUC      0.120193
     14 H2'2        3.2090    0.4720    1.9790 HC         1 FUC      0.120193
     15 C15        -3.3080    0.0330    0.1970 C          1 FUC      0.797229
     16 H4         -2.6140    1.8840   -0.2230 H          1 FUC      0.413265
     17 H6          1.1000   -1.9510   -0.1270 H4         1 FUC      0.202737
     18 C18        -1.7520   -1.7010   -0.3230 CT         1 FUC      0.172082
     19 H2'3        2.9310   -1.2690    1.8570 HC         1 FUC      0.120193
     20 HHO4        3.3610   -1.2410   -1.6510 HO         1 FUC      0.433598
     21 O8         -4.4130    0.3770    0.4320 O          1 FUC     -0.625935
     22 H181       -2.0170   -1.8720   -1.3610 H1         1 FUC      0.075202
     23 O12        -2.9090   -1.2250    0.3480 OS         1 FUC     -0.515848
     24 H183       -1.5210   -2.6520    0.1320 H1         1 FUC      0.075202
@<TRIPOS>BOND
    1     1     2 1
    2     1     3 1
    3     1     9 1
    4     4     5 1
    5     4    15 1
    6     5     6 1
    7     5    11 1
    8     6     7 1
    9     7     8 1
   10     7     9 1
   11     9    10 1
   12    10    11 1
   13    11    18 1
   14    15    21 1
   15    15    23 1
   16    18    23 1
   17     1    12 1
   18     2    13 1
   19     2    14 1
   20     2    19 1
   21     3    20 1
   22     4    16 1
   23    10    17 1
   24    18    22 1
   25    18    24 1
@<TRIPOS>SUBSTRUCTURE
      1 FUC               1 ****               0 ****  **** 
