@<TRIPOS>MOLECULE
modXNA-fragment:FVC:HEAD01:@N1:HEAD01STRIP:@C1',H1',C2',H2'1,H2'2,H2'3,O4',HHO4
   32    33     1     0     0
SMALL
USER_CHARGES


@<TRIPOS>ATOM
      1 C1'        -4.3570   -1.4710   -0.3400 CT         1 FVC      0.504528
      2 C2'        -5.0140   -1.4520    1.0420 CT         1 FVC     -0.281929
      3 O4'        -5.0100   -0.4890   -1.1520 OH         1 FVC     -0.863882
      4 N4          1.1180   -0.2980    0.0560 N2         1 FVC     -0.998081
      5 C4         -0.2390   -0.5810   -0.0350 CA         1 FVC      1.084091
      6 N3         -0.6170   -1.8230   -0.1900 NC         1 FVC     -1.096260
      7 C2         -1.9510   -2.1810   -0.2860 C          1 FVC      0.964268
      8 O2         -2.3460   -3.3480   -0.4050 O          1 FVC     -0.792602
      9 N1         -2.9040   -1.1300   -0.2630 N*         1 FVC     -0.609510
     10 C6         -2.5210    0.1800   -0.1300 CM         1 FVC      0.364529
     11 C5         -1.2010    0.5260   -0.0140 CM         1 FVC     -0.636439
     12 H1'        -4.4090   -2.4510   -0.7870 H2         1 FVC      0.047777
     13 H2'1       -4.5120   -2.1560    1.7020 HC         1 FVC      0.112536
     14 H2'2       -6.0590   -1.7340    0.9470 HC         1 FVC      0.112536
     15 H4          1.4020    0.6380   -0.1380 H          1 FVC      0.342493
     16 C16         2.1210   -1.1770    0.5250 C          1 FVC      0.714759
     17 H6         -3.3140    0.9020   -0.1360 H4         1 FVC      0.139406
     18 I          -0.6610    2.5620    0.2110 I          1 FVC      0.053911
     19 H2'3       -4.9660   -0.4540    1.4740 HC         1 FVC      0.112536
     20 HHO4       -4.9840   -0.6770   -2.0900 HO         1 FVC      0.497930
     21 O8          1.8830   -2.1060    1.2890 O          1 FVC     -0.621957
     22 C10         3.5230   -0.8330    0.0970 CA         1 FVC     -0.071189
     23 C24         4.5870   -1.3140    0.8930 CA         1 FVC     -0.081477
     24 C25         5.9150   -1.0340    0.5310 CA         1 FVC     -0.118036
     25 C26         6.1870   -0.2850   -0.6330 CA         1 FVC     -0.082606
     26 C27         5.1280    0.1810   -1.4370 CA         1 FVC     -0.118036
     27 C28         3.7960   -0.0910   -1.0740 CA         1 FVC     -0.081477
     28 H85         4.3620   -1.8950    1.7680 HA         1 FVC      0.140023
     29 H87         6.7250   -1.3960    1.1400 HA         1 FVC      0.147674
     30 H89         7.2060   -0.0740   -0.9120 HA         1 FVC      0.144370
     31 H91         5.3350    0.7370   -2.3350 HA         1 FVC      0.147674
     32 H93         2.9970    0.2390   -1.7140 HA         1 FVC      0.140023
@<TRIPOS>BOND
    1     1     2 1
    2     1     3 1
    3     1     9 1
    4     4     5 1
    5     4    16 1
    6     5     6 1
    7     5    11 1
    8     6     7 1
    9     7     8 1
   10     7     9 1
   11     9    10 1
   12    10    11 1
   13    11    18 1
   14    16    21 1
   15    16    22 1
   16    22    23 1
   17    22    27 1
   18    23    24 1
   19    24    25 1
   20    25    26 1
   21    26    27 1
   22     1    12 1
   23     2    13 1
   24     2    14 1
   25     2    19 1
   26     3    20 1
   27     4    15 1
   28    10    17 1
   29    23    28 1
   30    24    29 1
   31    25    30 1
   32    26    31 1
   33    27    32 1
@<TRIPOS>SUBSTRUCTURE
      1 FVC               1 ****               0 ****  **** 
