@<TRIPOS>MOLECULE
modXNA-fragment:FWC:HEAD01:@N1:HEAD01STRIP:@C1',H1',C2',H2'1,H2'2,H2'3,O4',HHO4
   32    33     1     0     0
SMALL
USER_CHARGES


@<TRIPOS>ATOM
      1 C1'        -4.4900   -0.7270   -0.3520 CT         1 FWC      0.358599
      2 C2'        -5.0960   -1.1500    0.9760 CT         1 FWC     -0.307294
      3 O4'        -5.0000    0.4970   -0.7920 OH         1 FWC     -0.752672
      4 N4          1.0020   -0.2150    0.0240 N2         1 FWC     -0.770154
      5 C4         -0.3590   -0.3630   -0.0470 CA         1 FWC      0.853189
      6 N3         -0.8820   -1.5180   -0.2380 NC         1 FWC     -0.847223
      7 C2         -2.2320   -1.6910   -0.3250 C          1 FWC      0.724690
      8 O2         -2.7610   -2.7560   -0.4670 O          1 FWC     -0.627938
      9 N1         -3.0380   -0.5430   -0.2450 N*         1 FWC     -0.387757
     10 C6         -2.4960    0.6750   -0.0530 CM         1 FWC      0.303593
     11 C5         -1.1680    0.8290    0.0580 CM         1 FWC     -0.558153
     12 H1'        -4.6370   -1.4940   -1.0950 H2         1 FWC      0.042048
     13 H2'1       -4.6560   -2.0800    1.3100 HC         1 FWC      0.114829
     14 H2'2       -6.1660   -1.3020    0.8640 HC         1 FWC      0.114829
     15 H4          1.3290    0.7220    0.0680 H          1 FWC      0.286499
     16 C16         1.9740   -1.2020    0.2030 C          1 FWC      0.596678
     17 H6         -3.1760    1.4990   -0.0040 H4         1 FWC      0.169079
     18 Br         -0.4340    2.5530    0.3240 Br         1 FWC      0.010200
     19 H2'3       -4.9340   -0.3810    1.7240 HC         1 FWC      0.114829
     20 HHO4       -5.9360    0.4210   -0.9150 HO         1 FWC      0.478646
     21 O8          1.7380   -2.3170    0.5290 O          1 FWC     -0.520923
     22 C10         3.3780   -0.7090   -0.0010 CA         1 FWC     -0.078381
     23 C24         4.3940   -1.3880    0.6620 CA         1 FWC     -0.078142
     24 C25         5.7100   -0.9930    0.5120 CA         1 FWC     -0.111116
     25 C26         6.0230    0.0750   -0.3170 CA         1 FWC     -0.082211
     26 C27         5.0180    0.7440   -0.9960 CA         1 FWC     -0.111116
     27 C28         3.6980    0.3550   -0.8360 CA         1 FWC     -0.078142
     28 H85         4.1390   -2.2220    1.2890 HA         1 FWC      0.134049
     29 H87         6.4900   -1.5160    1.0340 HA         1 FWC      0.141952
     30 H89         7.0470    0.3790   -0.4380 HA         1 FWC      0.139237
     31 H91         5.2590    1.5600   -1.6510 HA         1 FWC      0.141952
     32 H93         2.9320    0.8670   -1.3910 HA         1 FWC      0.134049
@<TRIPOS>BOND
    1     1     2 1
    2     1     3 1
    3     1     9 1
    4     4     5 1
    5     4    16 1
    6     5     6 1
    7     5    11 1
    8     6     7 1
    9     7     8 1
   10     7     9 1
   11     9    10 1
   12    10    11 1
   13    11    18 1
   14    16    21 1
   15    16    22 1
   16    22    23 1
   17    22    27 1
   18    23    24 1
   19    24    25 1
   20    25    26 1
   21    26    27 1
   22     1    12 1
   23     2    13 1
   24     2    14 1
   25     2    19 1
   26     3    20 1
   27     4    15 1
   28    10    17 1
   29    23    28 1
   30    24    29 1
   31    25    30 1
   32    26    31 1
   33    27    32 1
@<TRIPOS>SUBSTRUCTURE
      1 FWC               1 ****               0 ****  **** 
