@<TRIPOS>MOLECULE
modXNA-fragment:FZC:HEAD01:@N1:HEAD01STRIP:@C1',H1',C2',H2'1,H2'2,H2'3,O4',HHO4
   45    46     1     0     0
SMALL
USER_CHARGES


@<TRIPOS>ATOM
      1 C1'        -3.5490   -2.6720   -0.3700 CT         1 FZC      0.372106
      2 C2'        -4.0680   -3.0940    0.9950 CT         1 FZC     -0.323632
      3 O4'        -4.3960   -1.7410   -0.9810 OH         1 FZC     -0.747424
      4 N4          1.4690   -0.4240   -0.0090 N2         1 FZC     -0.670041
      5 C4          0.2090   -0.9940   -0.0650 CA         1 FZC      0.646860
      6 N3          0.1060   -2.2680   -0.1450 NC         1 FZC     -0.772516
      7 C2         -1.1180   -2.8680   -0.2170 C          1 FZC      0.711235
      8 O2         -1.2770   -4.0560   -0.2430 O          1 FZC     -0.645293
      9 N1         -2.2370   -2.0300   -0.2710 N*         1 FZC     -0.348139
     10 C6         -2.1160   -0.6850   -0.1850 CM         1 FZC      0.162083
     11 C5         -0.9170   -0.0900   -0.0740 CM         1 FZC     -0.458994
     12 H1'        -3.4110   -3.5350   -1.0010 H2         1 FZC      0.033331
     13 H2'1       -3.3800   -3.7890    1.4570 HC         1 FZC      0.117917
     14 H2'2       -5.0310   -3.5870    0.8930 HC         1 FZC      0.117917
     15 H4          1.5290    0.5480   -0.2040 H          1 FZC      0.240830
     16 C16         2.6550   -1.0120    0.4280 C          1 FZC      0.568771
     17 H6         -3.0260   -0.1280   -0.2150 H4         1 FZC      0.186287
     18 C18        -0.7470    1.4050    0.0440 CT         1 FZC      0.425477
     19 H2'3       -4.1920   -2.2270    1.6350 HC         1 FZC      0.117917
     20 HHO4       -5.2400   -2.1440   -1.1340 HO         1 FZC      0.469887
     21 O8          2.7040   -2.0140    1.0610 O          1 FZC     -0.518486
     22 C10         3.8880   -0.2250    0.0880 CA         1 FZC     -0.066935
     23 C24         4.9880   -0.3630    0.9280 CA         1 FZC     -0.085536
     24 C25         6.1560    0.3290    0.6650 CA         1 FZC     -0.115352
     25 C26         6.2400    1.1490   -0.4510 CA         1 FZC     -0.077889
     26 C27         5.1560    1.2750   -1.3030 CA         1 FZC     -0.115352
     27 C28         3.9810    0.5920   -1.0330 CA         1 FZC     -0.085536
     28 H24         4.9140   -1.0130    1.7790 HA         1 FZC      0.141300
     29 H25         6.9990    0.2260    1.3230 HA         1 FZC      0.142688
     30 H26         7.1500    1.6830   -0.6580 HA         1 FZC      0.138002
     31 H27         5.2240    1.8960   -2.1770 HA         1 FZC      0.142688
     32 H28         3.1570    0.6750   -1.7180 HA         1 FZC      0.141300
     33 O13        -2.0230    1.9960    0.0850 OS         1 FZC     -0.601842
     34 C13        -2.0880    3.3320    0.1620 CM         1 FZC      0.598525
     35 C7         -3.5330    3.7680    0.2020 CT         1 FZC     -0.111761
     36 N37        -1.0470    4.0230    0.1900 NA         1 FZC     -0.973997
     37 C39        -3.7500    5.2750    0.2850 CT         1 FZC     -0.121882
     38 H31        -3.9950    3.2690    1.0490 HC         1 FZC      0.078846
     39 H32        -4.0150    3.3620   -0.6830 HC         1 FZC      0.078846
     40 H81        -0.2010    1.6690    0.9420 H1         1 FZC      0.015712
     41 H82        -0.1990    1.8150   -0.7980 H1         1 FZC      0.015712
     42 H37        -1.2470    5.0010    0.2480 H          1 FZC      0.421912
     43 H91        -3.3270    5.7870   -0.5730 HC         1 FZC      0.049151
     44 H92        -3.3080    5.6920    1.1840 HC         1 FZC      0.049151
     45 H93        -4.8110    5.4960    0.3090 HC         1 FZC      0.049151
@<TRIPOS>BOND
    1     1     2 1
    2     1     3 1
    3     1     9 1
    4     4     5 1
    5     4    16 1
    6     5     6 1
    7     5    11 1
    8     6     7 1
    9     7     8 1
   10     7     9 1
   11     9    10 1
   12    10    11 1
   13    11    18 1
   14    16    21 1
   15    16    22 1
   16    18    33 1
   17    22    23 1
   18    22    27 1
   19    23    24 1
   20    24    25 1
   21    25    26 1
   22    26    27 1
   23    33    34 1
   24    34    35 1
   25    34    36 1
   26    35    37 1
   27     1    12 1
   28     2    13 1
   29     2    14 1
   30     2    19 1
   31     3    20 1
   32     4    15 1
   33    10    17 1
   34    18    40 1
   35    18    41 1
   36    23    28 1
   37    24    29 1
   38    25    30 1
   39    26    31 1
   40    27    32 1
   41    35    38 1
   42    35    39 1
   43    36    42 1
   44    37    43 1
   45    37    44 1
   46    37    45 1
@<TRIPOS>SUBSTRUCTURE
      1 FZC               1 ****               0 ****  **** 
