@<TRIPOS>MOLECULE
modXNA-fragment:G5C:HEAD01:@N1:HEAD01STRIP:@C1',H1',O4',HHO4,C2',H2'1,H2'3,H2'2
   45    46     1     0     0
SMALL
USER_CHARGES


@<TRIPOS>ATOM
      1 O4'         5.2620   -1.2220   -1.6540 OH         1 G5C     -0.763861
      2 C1'         5.3820   -0.6390   -0.3880 CT         1 G5C      0.354959
      3 H1'         6.1170    0.1490   -0.4000 H2         1 G5C      0.041225
      4 N1          4.0990    0.0070   -0.1120 N*         1 G5C     -0.288056
      5 C6          2.9500   -0.4350   -0.6710 CM         1 G5C      0.086873
      6 H6          3.0500   -1.2610   -1.3450 H4         1 G5C      0.210547
      7 C5          1.7660    0.1440   -0.4170 CM         1 G5C     -0.346723
      8 C8          0.5010   -0.2870   -1.0880 CT         1 G5C      0.112945
      9 C4          1.8130    1.2520    0.5090 CA         1 G5C      0.683221
     10 N10         0.6660    1.9090    0.8020 N2         1 G5C     -0.947477
     11 N3          2.9070    1.6800    1.0550 NC         1 G5C     -0.855425
     12 C2          4.1000    1.0880    0.7870 C          1 G5C      0.712011
     13 O2          5.1420    1.4220    1.2810 O          1 G5C     -0.659185
     14 C2'         5.7310   -1.6690    0.6750 CT         1 G5C     -0.321778
     15 H2'1        5.7880   -1.1950    1.6460 HC         1 G5C      0.117198
     16 HHO4        6.0860   -1.6240   -1.8910 HO         1 G5C      0.478516
     17 H2'2        6.6960   -2.1180    0.4590 HC         1 G5C      0.117198
     18 H2'3        4.9830   -2.4540    0.6980 HC         1 G5C      0.117198
     19 H81         0.0460    0.5480   -1.6090 H1         1 G5C      0.070312
     20 H82         0.7110   -1.0640   -1.8150 H1         1 G5C      0.070312
     21 O9         -0.4100   -0.7870   -0.1250 OS         1 G5C     -0.368952
     22 1H10        0.7460    2.5680    1.5460 H          1 G5C      0.406969
     23 C10        -1.7340   -0.7010   -0.4590 CT         1 G5C      0.319955
     24 O24        -2.1500    0.6150   -0.1930 OS         1 G5C     -0.480180
     25 C25        -3.4930    0.9030   -0.5080 CT         1 G5C      0.065547
     26 C26        -4.4100    0.0540    0.3770 CT         1 G5C     -0.008552
     27 C27        -4.0410   -1.4150    0.2070 CT         1 G5C      0.321270
     28 C28        -2.5440   -1.6550    0.3990 CT         1 G5C     -0.014790
     29 H10        -1.8910   -0.9240   -1.5120 H2         1 G5C      0.032549
     30 0C39       -3.6640    2.4000   -0.3170 CT         1 G5C      0.330256
     31 H25        -3.6880    0.6610   -1.5500 H1         1 G5C      0.076162
     32 H26        -4.2540    0.3420    1.4180 H1         1 G5C      0.069742
     33 3O39       -5.7530    0.2090    0.0150 OH         1 G5C     -0.646726
     34 4O39       -4.7640   -2.2770    1.0450 OH         1 G5C     -0.702841
     35 H27        -4.3110   -1.7100   -0.8000 H1         1 G5C      0.081845
     36 H28        -2.2760   -1.4580    1.4370 H1         1 G5C      0.073338
     37 7O39       -2.2160   -2.9600    0.0400 OH         1 G5C     -0.638331
     38 2H10       -0.1950    1.4110    0.7440 H          1 G5C      0.406969
     39 0H39       -4.6740    2.6890   -0.5770 H1         1 G5C      0.010180
     40 O17        -2.8150    3.1260   -1.1490 OH         1 G5C     -0.693959
     41 0H39       -3.4960    2.6490    0.7300 H1         1 G5C      0.010180
     42 9HO3       -6.1310    0.9640    0.4410 HO         1 G5C      0.432697
     43 9HO3       -4.7500   -1.9550    1.9380 HO         1 G5C      0.432804
     44 9HO3       -2.8490   -3.5460    0.4380 HO         1 G5C      0.438912
     45 7HO1       -1.9170    2.9000   -0.9430 HO         1 G5C      0.434442
@<TRIPOS>BOND
    1     1     2 1
    2     2     4 1
    3     2    14 1
    4     4     5 1
    5     4    12 1
    6     5     7 1
    7     7     8 1
    8     7     9 1
    9     8    21 1
   10     9    10 1
   11     9    11 1
   12    11    12 1
   13    12    13 1
   14    21    23 1
   15    23    24 1
   16    23    28 1
   17    24    25 1
   18    25    26 1
   19    25    30 1
   20    26    27 1
   21    26    33 1
   22    27    28 1
   23    27    34 1
   24    28    37 1
   25    30    40 1
   26     1    16 1
   27     2     3 1
   28     5     6 1
   29     8    19 1
   30     8    20 1
   31    10    22 1
   32    10    38 1
   33    14    15 1
   34    14    17 1
   35    14    18 1
   36    23    29 1
   37    25    31 1
   38    26    32 1
   39    27    35 1
   40    28    36 1
   41    30    39 1
   42    30    41 1
   43    33    42 1
   44    34    43 1
   45    37    44 1
   46    40    45 1
@<TRIPOS>SUBSTRUCTURE
      1 G5C               1 ****               0 ****  **** 
