@<TRIPOS>MOLECULE
modXNA-fragment:G6A:HEAD01:@N9:HEAD01STRIP:@C1',H1',O4',HHO4,C2',H2'1,H2'3,H2'2
   32    33     1     0     0
SMALL
USER_CHARGES


@<TRIPOS>ATOM
      1 O4'        -5.3970   -1.6160    0.5670 OH         1 G6A     -0.737415
      2 C1'        -4.8960   -0.3840    0.1460 CT         1 G6A      0.304325
      3 H1'        -5.0770    0.3820    0.8890 H2         1 G6A      0.066736
      4 N9         -3.4570   -0.5540    0.0800 N*         1 G6A     -0.113193
      5 C8         -2.7510   -1.7060   -0.1640 CK         1 G6A      0.197596
      6 H8         -3.2560   -2.6380   -0.2970 H5         1 G6A      0.164353
      7 N7         -1.4790   -1.5420   -0.1930 NB         1 G6A     -0.619722
      8 C5         -1.3080   -0.1940    0.0450 CB         1 G6A     -0.025455
      9 C6         -0.1800    0.6200    0.1430 CA         1 G6A      0.562344
     10 N6          1.0600    0.0390    0.0120 N2         1 G6A     -0.790514
     11 C11         2.2790    0.6590   -0.2230 C          1 G6A      0.832804
     12 H6          1.0310   -0.9530   -0.0860 H          1 G6A      0.380579
     13 N1         -0.3350    1.9010    0.3970 NC         1 G6A     -0.756775
     14 C2         -1.5700    2.3740    0.5300 CQ         1 G6A      0.481966
     15 H2         -1.6380    3.4280    0.7280 H5         1 G6A      0.053541
     16 N3         -2.7080    1.7210    0.4550 NC         1 G6A     -0.772437
     17 C4         -2.5240    0.4310    0.2170 CB         1 G6A      0.348035
     18 C2'        -5.4730    0.0430   -1.1940 CT         1 G6A     -0.348129
     19 H2'1       -5.2780   -0.7140   -1.9450 HC         1 G6A      0.131332
     20 HHO4       -6.3440   -1.5980    0.5500 HO         1 G6A      0.480033
     21 H2'2       -6.5480    0.1850   -1.1120 HC         1 G6A      0.131332
     22 H2'3       -5.0350    0.9810   -1.5110 HC         1 G6A      0.131332
     23 N11         3.3170   -0.2240   -0.1600 N          1 G6A     -0.798886
     24 O10         2.4310    1.8110   -0.4880 O          1 G6A     -0.629980
     25 H9          3.2270   -1.0870    0.3300 H          1 G6A      0.374156
     26 C10         4.6540    0.2680   -0.3170 CT         1 G6A     -0.016816
     27 C10         5.6400   -0.8090    0.0870 C          1 G6A      0.625131
     28 1H10        4.8310    1.1490    0.2940 H1         1 G6A      0.081552
     29 2H10        4.8410    0.5560   -1.3460 H1         1 G6A      0.081552
     30 O12         6.9180   -0.5030   -0.1040 OH         1 G6A     -0.644304
     31 O14         5.3220   -1.8490    0.5530 O          1 G6A     -0.541880
     32 2HO1        7.0350    0.3590   -0.4850 HO         1 G6A      0.431501
@<TRIPOS>BOND
    1     1     2 1
    2     2     4 1
    3     2    18 1
    4     4     5 1
    5     4    17 1
    6     5     7 1
    7     7     8 1
    8     8     9 1
    9     8    17 1
   10     9    10 1
   11     9    13 1
   12    10    11 1
   13    11    23 1
   14    11    24 1
   15    13    14 1
   16    14    16 1
   17    16    17 1
   18    23    26 1
   19    26    27 1
   20    27    30 1
   21    27    31 1
   22     1    20 1
   23     2     3 1
   24     5     6 1
   25    10    12 1
   26    14    15 1
   27    18    19 1
   28    18    21 1
   29    18    22 1
   30    23    25 1
   31    26    28 1
   32    26    29 1
   33    30    32 1
@<TRIPOS>SUBSTRUCTURE
      1 G6A               1 ****               0 ****  **** 
