@<TRIPOS>MOLECULE
modXNA-fragment:GAQ:HEAD01:@N9:HEAD01STRIP:@C1',H1',O4',HHO4,C2',H2'1,H2'3,H2'2
   63    66     1     0     0
SMALL
USER_CHARGES


@<TRIPOS>ATOM
      1 O4'         1.8580   -2.7660    0.7890 OH         1 GAQ     -0.791712
      2 C1'         2.6630   -1.9080    1.5820 CT         1 GAQ      0.427289
      3 H1'         3.7020   -2.0970    1.3610 H2         1 GAQ      0.015543
      4 N9          2.4100   -0.5570    1.1730 N*         1 GAQ     -0.175821
      5 C8          1.2330    0.1690    1.3800 CA         1 GAQ     -0.245280
      6 H8          0.4280   -0.2510    1.9390 H4         1 GAQ      0.199069
      7 C7          1.3190    1.3630    0.7640 C*         1 GAQ      0.065640
      8 C5          2.6160    1.3900    0.1390 CB         1 GAQ     -0.434798
      9 C6          3.3190    2.3610   -0.6400 C          1 GAQ      0.696383
     10 O6          2.9830    3.4620   -0.9790 O          1 GAQ     -0.652557
     11 N1          4.5880    1.8810   -1.0240 NA         1 GAQ     -0.627112
     12 H1          5.1520    2.5440   -1.5120 H          1 GAQ      0.417695
     13 C2          5.0950    0.6630   -0.7040 CA         1 GAQ      0.750201
     14 N2          6.3630    0.4090   -1.1340 N2         1 GAQ     -0.990114
     15 H21         6.6440   -0.5410   -1.0260 H          1 GAQ      0.416669
     16 H22         6.6640    0.8330   -1.9840 H          1 GAQ      0.416669
     17 N3          4.4650   -0.2160   -0.0080 NC         1 GAQ     -0.805930
     18 C4          3.2340    0.1900    0.4070 CB         1 GAQ      0.454177
     19 C2'         2.3890   -2.1340    3.0610 CT         1 GAQ     -0.394248
     20 H2'1        2.9870   -1.4600    3.6630 HC         1 GAQ      0.148205
     21 HHO4        2.2210   -3.6420    0.8110 HO         1 GAQ      0.469419
     22 H2'2        2.6460   -3.1530    3.3300 HC         1 GAQ      0.148205
     23 H2'3        1.3420   -1.9820    3.2930 HC         1 GAQ      0.148205
     24 C10         0.2710    2.4420    0.6990 CT         1 GAQ      0.262814
     25 N10        -0.9130    2.0760    1.4600 NT         1 GAQ     -0.862673
     26 1H10        0.7040    3.3860    1.0260 H1         1 GAQ      0.003125
     27 2H10        0.0020    2.5990   -0.3380 H1         1 GAQ      0.003125
     28 H10        -0.7990    2.3290    2.4200 H          1 GAQ      0.366413
     29 C13        -2.2130    2.5200    0.9770 CT         1 GAQ      0.306408
     30 C31        -2.3740    3.9690    0.5520 CM         1 GAQ     -0.227147
     31 C32        -3.1940    4.0910   -0.4740 CM         1 GAQ     -0.225627
     32 C33        -3.7220    2.7480   -0.9190 CT         1 GAQ      0.421453
     33 C34        -2.6980    1.7920   -0.2900 CT         1 GAQ     -0.173670
     34 H13        -2.9170    2.2990    1.7720 H1         1 GAQ      0.064911
     35 7O30       -5.0060    2.5580   -0.3880 OH         1 GAQ     -0.683130
     36 H33        -3.7520    2.6370   -1.9990 H1         1 GAQ     -0.041773
     37 9O30       -3.2910    0.5410   -0.0630 OS         1 GAQ     -0.353287
     38 H34        -1.8720    1.6790   -0.9810 H1         1 GAQ      0.167347
     39 H31        -1.8970    4.7830    1.0690 HA         1 GAQ      0.174222
     40 H32        -3.5100    5.0140   -0.9230 HA         1 GAQ      0.175623
     41 0HO3       -5.1770    1.6240   -0.3680 HO         1 GAQ      0.410799
     42 C19        -2.4190   -0.5210   -0.0110 CT         1 GAQ      0.284517
     43 C43        -3.0840   -1.7190    0.6530 CT         1 GAQ      0.224312
     44 C44        -2.1220   -2.9110    0.6120 CT         1 GAQ      0.009746
     45 C45        -1.5900   -3.1520   -0.8040 CT         1 GAQ      0.183804
     46 C46        -1.0670   -1.8450   -1.3920 CT         1 GAQ      0.074262
     47 O47        -2.0550   -0.8570   -1.3250 OS         1 GAQ     -0.478585
     48 H19        -1.5320   -0.2400    0.5380 H2         1 GAQ      0.056614
     49 O20        -3.4610   -1.4460    1.9690 OH         1 GAQ     -0.700652
     50 O22        -1.0820   -2.6320    1.5280 OH         1 GAQ     -0.655831
     51 H44        -2.6500   -3.7970    0.9540 H1         1 GAQ      0.078543
     52 H45        -0.7740   -3.8690   -0.7720 H1         1 GAQ      0.039368
     53 O25        -2.6240   -3.6240   -1.6250 OH         1 GAQ     -0.676148
     54 H46        -0.2060   -1.5350   -0.8020 H1         1 GAQ      0.115236
     55 C27        -0.6220   -1.9690   -2.8410 CT         1 GAQ      0.195051
     56 H43        -3.9830   -1.9550    0.1010 H1         1 GAQ      0.078448
     57 0HO2       -2.6770   -1.4400    2.5050 HO         1 GAQ      0.448762
     58 2HO2       -0.2220   -2.8370    1.1790 HO         1 GAQ      0.410481
     59 5HO2       -2.8220   -4.5240   -1.4060 HO         1 GAQ      0.427349
     60 1H27       -0.3680   -0.9810   -3.2120 H1         1 GAQ      0.041352
     61 2H27       -1.4220   -2.3650   -3.4450 H1         1 GAQ      0.041352
     62 O29         0.4620   -2.8550   -2.9590 OH         1 GAQ     -0.692898
     63 9HO2        1.2200   -2.4770   -2.5330 HO         1 GAQ      0.409711
@<TRIPOS>BOND
    1     1     2 1
    2     2     4 1
    3     2    19 1
    4     4     5 1
    5     4    18 1
    6     5     7 1
    7     7     8 1
    8     7    24 1
    9     8     9 1
   10     8    18 1
   11     9    10 1
   12     9    11 1
   13    11    13 1
   14    13    14 1
   15    13    17 1
   16    17    18 1
   17    24    25 1
   18    25    29 1
   19    29    30 1
   20    29    33 1
   21    30    31 1
   22    31    32 1
   23    32    33 1
   24    32    35 1
   25    33    37 1
   26    37    42 1
   27    42    43 1
   28    42    47 1
   29    43    44 1
   30    43    49 1
   31    44    45 1
   32    44    50 1
   33    45    46 1
   34    45    53 1
   35    46    47 1
   36    46    55 1
   37    55    62 1
   38     1    21 1
   39     2     3 1
   40     5     6 1
   41    11    12 1
   42    14    15 1
   43    14    16 1
   44    19    20 1
   45    19    22 1
   46    19    23 1
   47    24    26 1
   48    24    27 1
   49    25    28 1
   50    29    34 1
   51    30    39 1
   52    31    40 1
   53    32    36 1
   54    33    38 1
   55    35    41 1
   56    42    48 1
   57    43    56 1
   58    44    51 1
   59    45    52 1
   60    46    54 1
   61    49    57 1
   62    50    58 1
   63    53    59 1
   64    55    60 1
   65    55    61 1
   66    62    63 1
@<TRIPOS>SUBSTRUCTURE
      1 GAQ               1 ****               0 ****  **** 
