@<TRIPOS>MOLECULE
modXNA-fragment:GC2:HEAD01:@N9:HEAD01STRIP:@C1',H1',O4',HHO4,C2',H2'1,H2'3,H2'2
   43    45     1     0     0
SMALL
USER_CHARGES


@<TRIPOS>ATOM
      1 C1'        -5.9140   -0.3400   -0.2710 CT         1 GC2      0.457943
      2 C2'        -6.5510   -0.0100    1.0640 CT         1 GC2     -0.241441
      3 O4'        -6.2760    0.6530   -1.1780 OH         1 GC2     -0.710849
      4 N4         -2.4860   -1.6970    0.1260 NC         1 GC2     -0.864816
      5 C5         -2.3940    0.6980   -0.0160 CM         1 GC2      0.072835
      6 C8         -3.7140    0.7380   -0.1630 CM         1 GC2     -0.111462
      7 N9         -4.4490   -0.4170   -0.1760 N*         1 GC2     -0.443768
      8 C4         -3.8490   -1.6640    0.0180 C          1 GC2      0.761087
      9 H1'        -6.2320   -1.3130   -0.6060 H2         1 GC2     -0.001573
     10 H2'1       -7.6290    0.0130    0.9590 HC         1 GC2      0.093749
     11 H2'2       -6.2830   -0.7640    1.7940 HC         1 GC2      0.093749
     12 H2'3       -6.2200    0.9610    1.4170 HC         1 GC2      0.093749
     13 HHO4       -6.0780    0.3660   -2.0600 HO         1 GC2      0.431166
     14 C15        -1.7980   -0.6080    0.1170 CA         1 GC2      0.537560
     15 O9         -4.5360   -2.6480    0.0780 O          1 GC2     -0.667010
     16 N10        -0.4610   -0.6560    0.2280 NA         1 GC2     -0.485426
     17 O8         -1.6440    1.8430    0.0060 OS         1 GC2     -0.372264
     18 H10        -0.0220   -1.5460    0.3050 H          1 GC2      0.356371
     19 C10         0.3230    0.5020    0.1680 CA         1 GC2     -0.036621
     20 C3         -0.2870    1.7360    0.0540 CA         1 GC2      0.297731
     21 C6          0.4620    2.8970   -0.0030 CA         1 GC2     -0.292646
     22 C12         1.7120    0.4220    0.2250 CA         1 GC2      0.214939
     23 C11         1.8380    2.8040    0.0550 CA         1 GC2     -0.083183
     24 C14         2.4760    1.5750    0.1670 CA         1 GC2     -0.239228
     25 O15         2.1900   -0.8400    0.3340 OS         1 GC2     -0.385075
     26 H141        3.5480    1.5300    0.1980 HA         1 GC2      0.191980
     27 C7          3.5610   -1.0790    0.5660 CT         1 GC2      0.110654
     28 C9          4.3330   -1.1420   -0.7500 CT         1 GC2      0.112706
     29 H111        3.6020   -2.0380    1.0660 H1         1 GC2      0.059108
     30 H112        3.9760   -0.3320    1.2260 H1         1 GC2      0.059108
     31 N13         5.7450   -1.4000   -0.5680 NT         1 GC2     -0.821630
     32 H3          4.2270   -0.2160   -1.2940 H1         1 GC2      0.060293
     33 H4          3.9220   -1.9340   -1.3640 H1         1 GC2      0.060293
     34 H13         5.9900   -2.3240   -0.2860 H          1 GC2      0.409016
     35 H82        -4.2510    1.6550   -0.2920 H4         1 GC2      0.241131
     36 H102       -0.0420    3.8400   -0.0900 HA         1 GC2      0.204288
     37 H5          2.4320    3.6980    0.0090 HA         1 GC2      0.167279
     38 C26         6.5880   -0.4140   -0.1180 CM         1 GC2      0.710665
     39 N26         6.1710    0.7610    0.0930 N2         1 GC2     -0.881952
     40 N27         7.8800   -0.8800    0.0760 NT         1 GC2     -1.048369
     41 H26         6.9150    1.3890    0.3260 H          1 GC2      0.348213
     42 H271        8.1960   -1.5360   -0.6070 H          1 GC2      0.412187
     43 H272        8.5570   -0.1700    0.2530 H          1 GC2      0.412187
@<TRIPOS>BOND
    1     1     2 1
    2     1     3 1
    3     1     7 1
    4     4     8 1
    5     4    14 1
    6     5     6 1
    7     5    14 1
    8     5    17 1
    9     6     7 1
   10     7     8 1
   11     8    15 1
   12    14    16 1
   13    16    19 1
   14    17    20 1
   15    19    20 1
   16    19    22 1
   17    20    21 1
   18    21    23 1
   19    22    24 1
   20    22    25 1
   21    23    24 1
   22    25    27 1
   23    27    28 1
   24    28    31 1
   25    31    38 1
   26    38    39 1
   27    38    40 1
   28     1     9 1
   29     2    10 1
   30     2    11 1
   31     2    12 1
   32     3    13 1
   33     6    35 1
   34    16    18 1
   35    21    36 1
   36    23    37 1
   37    24    26 1
   38    27    29 1
   39    27    30 1
   40    28    32 1
   41    28    33 1
   42    31    34 1
   43    39    41 1
   44    40    42 1
   45    40    43 1
@<TRIPOS>SUBSTRUCTURE
      1 GC2               1 ****               0 ****  **** 
