@<TRIPOS>MOLECULE
modXNA-fragment:GCL:HEAD01:@N9:HEAD01STRIP:@C1',H1',O4',HHO4,C2',H2'1,H2'3,H2'2
   38    40     1     0     0
SMALL
USER_CHARGES


@<TRIPOS>ATOM
      1 C1'         4.9610   -0.2530    0.0160 CT         1 GCL      0.441022
      2 C2'         5.4380   -0.1640   -1.4200 CT         1 GCL     -0.250562
      3 O4'         5.3950    0.8860    0.6870 OH         1 GCL     -0.705805
      4 N4          1.5410   -1.6730    0.2420 NC         1 GCL     -0.857777
      5 C5          1.4100    0.7100   -0.0140 CM         1 GCL      0.060908
      6 C8          2.7370    0.7800   -0.0260 CM         1 GCL     -0.103297
      7 N9          3.4950   -0.3510    0.1000 N*         1 GCL     -0.431264
      8 C4          2.9070   -1.6160    0.1900 C          1 GCL      0.747840
      9 H1'         5.3360   -1.1500    0.4790 H2         1 GCL      0.007354
     10 H2'1        6.5210   -0.1190   -1.4420 HC         1 GCL      0.098159
     11 H2'2        5.1090   -1.0350   -1.9720 HC         1 GCL      0.098159
     12 H2'3        5.0490    0.7290   -1.8980 HC         1 GCL      0.098159
     13 HHO4        5.3130    0.7550    1.6230 HO         1 GCL      0.431833
     14 C15         0.8340   -0.6020    0.1430 CA         1 GCL      0.561420
     15 O9          3.6060   -2.5920    0.2220 O          1 GCL     -0.659428
     16 N10        -0.5070   -0.6740    0.1890 NA         1 GCL     -0.527496
     17 H8          3.2630    1.7090   -0.1140 H4         1 GCL      0.242480
     18 O8          0.6340    1.8320   -0.1400 OS         1 GCL     -0.373939
     19 H10        -0.9310   -1.5670    0.3120 H          1 GCL      0.360401
     20 C10        -1.3060    0.4730    0.1260 CA         1 GCL     -0.024384
     21 C3         -0.7150    1.7100   -0.0340 CA         1 GCL      0.301532
     22 C6         -1.4800    2.8620   -0.0960 CA         1 GCL     -0.280824
     23 C12        -2.6920    0.3760    0.2260 CA         1 GCL      0.219480
     24 C11        -2.8510    2.7560    0.0020 CA         1 GCL     -0.068300
     25 H3         -0.9890    3.8090   -0.2220 HA         1 GCL      0.202232
     26 C14        -3.4670    1.5210    0.1620 CA         1 GCL     -0.296908
     27 O15        -3.1480   -0.8860    0.3870 OS         1 GCL     -0.334377
     28 H11        -3.4580    3.6420   -0.0490 HA         1 GCL      0.160474
     29 H14        -4.5350    1.4680    0.2280 HA         1 GCL      0.224961
     30 C7         -4.5170   -1.1640    0.5810 CT         1 GCL      0.013848
     31 C9         -5.2760   -1.2810   -0.7400 CT         1 GCL      0.259417
     32 H111       -4.9660   -0.4230    1.2340 H1         1 GCL      0.063592
     33 H112       -4.5400   -2.1130    1.1000 H1         1 GCL      0.063592
     34 N13        -6.6710   -1.6450   -0.5880 NT         1 GCL     -1.027468
     35 H4         -4.7870   -2.0280   -1.3540 H1         1 GCL      0.017971
     36 H5         -5.2230   -0.3470   -1.2880 H1         1 GCL      0.017971
     37 H131       -7.1790   -0.9700   -0.0500 H          1 GCL      0.374849
     38 H132       -6.7770   -2.5360   -0.1420 H          1 GCL      0.374849
@<TRIPOS>BOND
    1     1     2 1
    2     1     3 1
    3     1     7 1
    4     4     8 1
    5     4    14 1
    6     5     6 1
    7     5    14 1
    8     5    18 1
    9     6     7 1
   10     7     8 1
   11     8    15 1
   12    14    16 1
   13    16    20 1
   14    18    21 1
   15    20    21 1
   16    20    23 1
   17    21    22 1
   18    22    24 1
   19    23    26 1
   20    23    27 1
   21    24    26 1
   22    27    30 1
   23    30    31 1
   24    31    34 1
   25     1     9 1
   26     2    10 1
   27     2    11 1
   28     2    12 1
   29     3    13 1
   30     6    17 1
   31    16    19 1
   32    22    25 1
   33    24    28 1
   34    26    29 1
   35    30    32 1
   36    30    33 1
   37    31    35 1
   38    31    36 1
   39    34    37 1
   40    34    38 1
@<TRIPOS>SUBSTRUCTURE
      1 GCL               1 ****               0 ****  **** 
