@<TRIPOS>MOLECULE
modXNA-fragment:GLQ:HEAD01:@N9:HEAD01STRIP:@C1',H1',O4',HHO4,C2',H2'1,H2'3,H2'2
   58    60     1     0     0
SMALL
USER_CHARGES


@<TRIPOS>ATOM
      1 O4'        -3.5440    3.3250   -1.8460 OH         1 GLQ     -0.712042
      2 C1'        -4.1410    3.0250   -0.6170 CT         1 GLQ      0.423662
      3 H1'        -5.2100    3.1740   -0.6650 H2         1 GLQ     -0.009567
      4 N9         -3.9420    1.6120   -0.4000 N*         1 GLQ     -0.081880
      5 C8         -2.7310    0.9340   -0.5160 CA         1 GLQ     -0.220203
      6 H8         -1.8600    1.4460   -0.8620 H4         1 GLQ      0.210505
      7 C7         -2.9050   -0.3630   -0.1970 C*         1 GLQ      0.004882
      8 C5         -4.2980   -0.5040    0.1350 CB         1 GLQ     -0.392437
      9 C6         -5.1110   -1.5990    0.5630 C          1 GLQ      0.669546
     10 O6         -4.8140   -2.7450    0.7630 O          1 GLQ     -0.653247
     11 N1         -6.4440   -1.1920    0.7660 NA         1 GLQ     -0.599291
     12 H1         -7.0420   -1.9000    1.1350 H          1 GLQ      0.411012
     13 C2         -6.9130    0.0720    0.5960 CA         1 GLQ      0.724752
     14 N2         -8.2290    0.2690    0.9000 N2         1 GLQ     -0.980227
     15 H21        -8.8580   -0.4870    0.7410 H          1 GLQ      0.412468
     16 H22        -8.5760    1.1560    0.6090 H          1 GLQ      0.412468
     17 N3         -6.1880    1.0610    0.2110 NC         1 GLQ     -0.767937
     18 C4         -4.8840    0.7350   -0.0070 CB         1 GLQ      0.386677
     19 C2'        -3.5500    3.8610    0.5100 CT         1 GLQ     -0.328459
     20 H2'1       -2.4800    3.7000    0.5830 HC         1 GLQ      0.110554
     21 HHO4       -3.6020    4.2560   -2.0070 HO         1 GLQ      0.441177
     22 H2'2       -3.7270    4.9180    0.3300 HC         1 GLQ      0.110554
     23 H2'3       -4.0100    3.5990    1.4560 HC         1 GLQ      0.110554
     24 C24        -1.8820   -1.4630   -0.2180 CT         1 GLQ      0.226262
     25 N25        -0.5340   -0.9160   -0.1600 NT         1 GLQ     -0.816087
     26 C26         0.5320   -1.9100   -0.1100 CT         1 GLQ      0.288917
     27 1H24       -2.0870   -2.1580    0.5950 H1         1 GLQ      0.036077
     28 2H24       -1.9880   -2.0250   -1.1380 H1         1 GLQ      0.036077
     29 H25        -0.4710   -0.3440    0.6620 H          1 GLQ      0.336590
     30 C13         1.8890   -1.1860   -0.2100 CT         1 GLQ     -0.047746
     31 C14         0.5420   -2.7950   -1.3390 CM         1 GLQ     -0.187011
     32 H26         0.4960   -2.5040    0.8020 H1         1 GLQ      0.034765
     33 C33         1.4890   -2.4600   -2.1900 CM         1 GLQ     -0.168275
     34 C34         2.3130   -1.2990   -1.6970 CT         1 GLQ      0.243569
     35 H14        -0.1670   -3.5890   -1.4840 HA         1 GLQ      0.154841
     36 H33         1.6760   -2.9210   -3.1430 HA         1 GLQ      0.157355
     37 O16         3.6940   -1.4570   -1.8650 OH         1 GLQ     -0.704842
     38 H34         2.0590   -0.3900   -2.2270 H1         1 GLQ      0.082849
     39 H13         1.8010   -0.1620    0.1230 H1         1 GLQ      0.072708
     40 O19         2.7990   -1.8980    0.6050 OS         1 GLQ     -0.428222
     41 6HO1        3.9420   -2.3440   -1.6340 HO         1 GLQ      0.468636
     42 C42         4.0300   -1.4780    0.9250 C          1 GLQ      0.473343
     43 C43         4.3700    0.0120    0.8530 CT         1 GLQ      0.398751
     44 C44         5.8490    0.1960    0.5160 CT         1 GLQ     -0.076958
     45 C45         6.2030    1.6690    0.3410 CT         1 GLQ     -0.071166
     46 C46         7.6700    1.8920    0.0390 C          1 GLQ      0.623628
     47 O47         8.0230    3.1750   -0.1130 OH         1 GLQ     -0.666906
     48 O20         4.7940   -2.2680    1.3700 O          1 GLQ     -0.566940
     49 H43         3.7830    0.5010    0.0910 H1         1 GLQ      0.016930
     50 N22         4.0550    0.6520    2.1280 NT         1 GLQ     -1.114311
     51 1H44        6.4580   -0.2440    1.2940 HC         1 GLQ      0.024575
     52 2H44        6.0750   -0.3430   -0.3950 HC         1 GLQ      0.024575
     53 1H45        5.6280    2.1070   -0.4730 HC         1 GLQ      0.020047
     54 2H45        5.9450    2.2290    1.2350 HC         1 GLQ      0.020047
     55 O27         8.4790    1.0370   -0.0660 O          1 GLQ     -0.557468
     56 3H47        7.2860    3.7590    0.0060 HO         1 GLQ      0.428169
     57 1H22        4.5260    0.1790    2.8770 H          1 GLQ      0.402253
     58 2H22        3.0740    0.6240    2.3280 H          1 GLQ      0.402253
@<TRIPOS>BOND
    1     1     2 1
    2     2     4 1
    3     2    19 1
    4     4     5 1
    5     4    18 1
    6     5     7 1
    7     7     8 1
    8     7    24 1
    9     8     9 1
   10     8    18 1
   11     9    10 1
   12     9    11 1
   13    11    13 1
   14    13    14 1
   15    13    17 1
   16    17    18 1
   17    24    25 1
   18    25    26 1
   19    26    30 1
   20    26    31 1
   21    30    34 1
   22    30    40 1
   23    31    33 1
   24    33    34 1
   25    34    37 1
   26    40    42 1
   27    42    43 1
   28    42    48 1
   29    43    44 1
   30    43    50 1
   31    44    45 1
   32    45    46 1
   33    46    47 1
   34    46    55 1
   35     1    21 1
   36     2     3 1
   37     5     6 1
   38    11    12 1
   39    14    15 1
   40    14    16 1
   41    19    20 1
   42    19    22 1
   43    19    23 1
   44    24    27 1
   45    24    28 1
   46    25    29 1
   47    26    32 1
   48    30    39 1
   49    31    35 1
   50    33    36 1
   51    34    38 1
   52    37    41 1
   53    43    49 1
   54    44    51 1
   55    44    52 1
   56    45    53 1
   57    45    54 1
   58    47    56 1
   59    50    57 1
   60    50    58 1
@<TRIPOS>SUBSTRUCTURE
      1 GLQ               1 ****               0 ****  **** 
