@<TRIPOS>MOLECULE
modXNA-fragment:GSU:HEAD01:@N1:HEAD01STRIP:@C1',H1',O4',HHO4,C2',H2'1,H2'3,H2'2
   45    45     1     0     0
SMALL
USER_CHARGES


@<TRIPOS>ATOM
      1 O4'        -5.0570    2.2840    0.7800 OH         1 GSU     -0.696075
      2 C1'        -4.0360    1.9260   -0.1010 CT         1 GSU      0.201451
      3 H1'        -3.0930    2.2950    0.2700 H2         1 GSU      0.092608
      4 N1         -3.9760    0.4660   -0.0750 N*         1 GSU     -0.180288
      5 C6         -5.1600   -0.2470   -0.1400 CM         1 GSU      0.085422
      6 H6         -6.0480    0.3500   -0.1350 H4         1 GSU      0.188553
      7 C5         -5.1770   -1.5730   -0.1810 CM         1 GSU     -0.487402
      8 H5         -6.0970   -2.1210   -0.2230 HA         1 GSU      0.222204
      9 C4         -3.9130   -2.3130   -0.1550 C          1 GSU      0.801976
     10 O4         -3.8520   -3.5060   -0.1900 O          1 GSU     -0.663834
     11 N3         -2.7600   -1.5290   -0.0880 NC         1 GSU     -0.778628
     12 C2         -2.8160   -0.2610   -0.0560 CA         1 GSU      0.496656
     13 S2         -1.2890    0.6490    0.0040 S          1 GSU     -0.318465
     14 C2'        -4.2850    2.4560   -1.5060 CT         1 GSU     -0.173739
     15 H2'1       -3.4890    2.1500   -2.1740 HC         1 GSU      0.071649
     16 HHO4       -5.1820    3.2230    0.7580 HO         1 GSU      0.471170
     17 H2'2       -5.2290    2.0880   -1.8920 HC         1 GSU      0.071649
     18 H2'3       -4.3180    3.5410   -1.4960 HC         1 GSU      0.071649
     19 C8         -0.0620   -0.7090   -0.0290 CT         1 GSU     -0.028407
     20 C8          1.3080   -0.1010   -0.1600 CM         1 GSU     -0.229287
     21 H81        -0.2930   -1.3340   -0.8770 H1         1 GSU      0.118220
     22 H82        -0.1900   -1.3040    0.8590 H1         1 GSU      0.118220
     23 C10         2.1860    0.1030    0.8120 CM         1 GSU      0.113657
     24 H8          1.5780    0.1830   -1.1630 HA         1 GSU      0.166439
     25 C11         1.9330   -0.2220    2.2670 CT         1 GSU     -0.123715
     26 C12         3.5460    0.6910    0.4960 CT         1 GSU     -0.205940
     27 1H11        2.4630   -1.1230    2.5640 HC         1 GSU      0.062453
     28 2H11        0.8840   -0.3670    2.4870 HC         1 GSU      0.062453
     29 3H11        2.2940    0.5840    2.8980 HC         1 GSU      0.062453
     30 C14         4.7130   -0.2870    0.7340 CT         1 GSU      0.210705
     31 1H12        3.7000    1.5780    1.1090 HC         1 GSU      0.091877
     32 2H12        3.5720    1.0180   -0.5370 HC         1 GSU      0.091877
     33 C16         6.0440    0.3520    0.4330 CM         1 GSU     -0.431687
     34 1H14        4.5510   -1.1780    0.1410 HC         1 GSU     -0.006653
     35 2H14        4.7120   -0.6040    1.7740 HC         1 GSU     -0.006653
     36 C18         6.9210    0.0450   -0.5110 CM         1 GSU      0.277260
     37 H16         6.2910    1.1760    1.0870 HA         1 GSU      0.186015
     38 C19         6.7640   -1.0640   -1.5240 CT         1 GSU     -0.322894
     39 C20         8.2110    0.8190   -0.6500 CT         1 GSU     -0.322894
     40 1H19        7.5740   -1.7840   -1.4240 HC         1 GSU      0.113964
     41 2H19        6.8250   -0.6630   -2.5330 HC         1 GSU      0.113964
     42 3H19        5.8300   -1.6000   -1.4360 HC         1 GSU      0.113964
     43 1H20        8.2860    1.2740   -1.6340 HC         1 GSU      0.113964
     44 2H20        9.0710    0.1610   -0.5410 HC         1 GSU      0.113964
     45 3H20        8.2930    1.6040    0.0920 HC         1 GSU      0.113964
@<TRIPOS>BOND
    1     1     2 1
    2     2     4 1
    3     2    14 1
    4     4     5 1
    5     4    12 1
    6     5     7 1
    7     7     9 1
    8     9    10 1
    9     9    11 1
   10    11    12 1
   11    12    13 1
   12    13    19 1
   13    19    20 1
   14    20    23 1
   15    23    25 1
   16    23    26 1
   17    26    30 1
   18    30    33 1
   19    33    36 1
   20    36    38 1
   21    36    39 1
   22     1    16 1
   23     2     3 1
   24     5     6 1
   25     7     8 1
   26    14    15 1
   27    14    17 1
   28    14    18 1
   29    19    21 1
   30    19    22 1
   31    20    24 1
   32    25    27 1
   33    25    28 1
   34    25    29 1
   35    26    31 1
   36    26    32 1
   37    30    34 1
   38    30    35 1
   39    33    37 1
   40    38    40 1
   41    38    41 1
   42    38    42 1
   43    39    43 1
   44    39    44 1
   45    39    45 1
@<TRIPOS>SUBSTRUCTURE
      1 GSU               1 ****               0 ****  **** 
