@<TRIPOS>MOLECULE
modXNA-fragment:GXT:HEAD01:@N1:HEAD01STRIP:@C1',H1',O4',HHO4,C2',H2'1,H2'3,H2'2
   25    26     1     0     0
SMALL
USER_CHARGES


@<TRIPOS>ATOM
      1 C1'         2.8820   -1.2090   -0.0590 CT         1 GXT      0.332317
      2 C2'         3.3250   -1.4990    1.3660 CT         1 GXT     -0.290116
      3 O4'         2.3180   -2.3290   -0.6720 OH         1 GXT     -0.734116
      4 O4         -0.8870    2.7420   -0.2080 O          1 GXT     -0.568309
      5 C4         -0.1240    1.8310   -0.1360 C          1 GXT      0.632410
      6 N3          1.2450    2.0530   -0.2280 NA         1 GXT     -0.690085
      7 C2          2.2600    1.1390   -0.2070 C          1 GXT      0.576592
      8 O2          3.4130    1.4550   -0.2720 O          1 GXT     -0.606337
      9 N1          1.8480   -0.1710   -0.1030 N*         1 GXT     -0.189231
     10 C6          0.5210   -0.4900    0.0280 CM         1 GXT      0.127162
     11 C5         -0.4660    0.4110    0.0290 CM         1 GXT     -0.378332
     12 H1'         3.7080   -0.8300   -0.6380 H2         1 GXT      0.042858
     13 H2'1        3.7350   -0.6060    1.8200 HC         1 GXT      0.108199
     14 H2'2        4.0980   -2.2630    1.3700 HC         1 GXT      0.108199
     15 H3          1.5300    3.0050   -0.3250 H          1 GXT      0.382569
     16 H6          0.3240   -1.5370    0.1230 H4         1 GXT      0.143816
     17 C17        -1.8800    0.0130    0.1870 CC         1 GXT      0.362938
     18 H2'3        2.4900   -1.8530    1.9610 HC         1 GXT      0.108199
     19 HHO4        2.9440   -3.0400   -0.6720 HO         1 GXT      0.473284
     20 N21        -2.6420    0.4340    1.1190 NB         1 GXT     -0.469990
     21 C22        -3.9010   -0.1070    1.0160 CV         1 GXT      0.076855
     22 C23        -4.0950   -0.9570   -0.0040 CA         1 GXT     -0.267145
     23 S24        -2.6410   -1.0930   -0.9210 S          1 GXT     -0.027252
     24 H525       -4.6410    0.1670    1.7410 H4         1 GXT      0.130910
     25 H4         -4.9840   -1.4920   -0.2640 H4         1 GXT      0.244284
@<TRIPOS>BOND
    1     1     2 1
    2     1     3 1
    3     1     9 1
    4     4     5 1
    5     5     6 1
    6     5    11 1
    7     6     7 1
    8     7     8 1
    9     7     9 1
   10     9    10 1
   11    10    11 1
   12    11    17 1
   13    17    20 1
   14    17    23 1
   15    20    21 1
   16    21    22 1
   17    22    23 1
   18     1    12 1
   19     2    13 1
   20     2    14 1
   21     2    18 1
   22     3    19 1
   23     6    15 1
   24    10    16 1
   25    21    24 1
   26    22    25 1
@<TRIPOS>SUBSTRUCTURE
      1 GXT               1 ****               0 ****  **** 
