@<TRIPOS>MOLECULE
modXNA-fragment:GYT:HEAD01:@N1:HEAD01STRIP:@C1',H1',O4',HHO4,C2',H2'1,H2'3,H2'2
   29    31     1     0     0
SMALL
USER_CHARGES


@<TRIPOS>ATOM
      1 C1'         3.6840   -0.5460   -0.2490 CT         1 GYT      0.392598
      2 C2'         4.3430   -0.6220    1.1190 CT         1 GYT     -0.323547
      3 O4'         3.5960   -1.8040   -0.8540 OH         1 GYT     -0.737154
      4 N4         -1.3940    1.4790    0.0900 NA         1 GYT     -0.586814
      5 C4         -0.1340    0.9980    0.0280 CA         1 GYT      0.559830
      6 N3          0.8550    1.8140   -0.0740 NC         1 GYT     -0.865281
      7 C2          2.1380    1.3440   -0.1390 C          1 GYT      0.740284
      8 O2          3.1010    2.0610   -0.1790 O          1 GYT     -0.657796
      9 N1          2.3140   -0.0410   -0.1620 N*         1 GYT     -0.332297
     10 C6          1.2590   -0.9000   -0.0370 CM         1 GYT     -0.057754
     11 C5          0.0200   -0.4290    0.0740 CM         1 GYT      0.019140
     12 H1'         4.2160    0.1460   -0.8820 H2         1 GYT      0.025200
     13 H2'1        5.3640   -0.9830    1.0240 HC         1 GYT      0.114651
     14 H2'2        4.3720    0.3600    1.5720 HC         1 GYT      0.114651
     15 H6          1.4790   -1.9470   -0.0420 H4         1 GYT      0.249644
     16 O16        -1.0520   -1.2640    0.2410 OS         1 GYT     -0.386407
     17 H2'3        3.7970   -1.3030    1.7630 HC         1 GYT      0.114651
     18 HHO4        4.4670   -2.1600   -0.9630 HO         1 GYT      0.462343
     19 C8         -2.3040   -0.7410    0.1120 CA         1 GYT      0.293647
     20 C3         -2.5080    0.6330    0.0470 CA         1 GYT      0.108948
     21 H4         -1.5020    2.4650    0.0060 H          1 GYT      0.388422
     22 C10        -3.3730   -1.6090    0.0740 CA         1 GYT     -0.244087
     23 C12        -3.7970    1.1230   -0.0590 CA         1 GYT     -0.191512
     24 C7         -4.6640   -1.1130   -0.0270 CA         1 GYT     -0.095599
     25 H101       -3.1800   -2.6640    0.1270 HA         1 GYT      0.196209
     26 C13        -4.8750    0.2520   -0.0930 CA         1 GYT     -0.141153
     27 H121       -3.9540    2.1860   -0.1110 HA         1 GYT      0.185261
     28 H3         -5.4950   -1.7930   -0.0550 HA         1 GYT      0.154873
     29 H132       -5.8720    0.6460   -0.1730 HA         1 GYT      0.164065
@<TRIPOS>BOND
    1     1     2 1
    2     1     3 1
    3     1     9 1
    4     4     5 1
    5     4    20 1
    6     5     6 1
    7     5    11 1
    8     6     7 1
    9     7     8 1
   10     7     9 1
   11     9    10 1
   12    10    11 1
   13    11    16 1
   14    16    19 1
   15    19    20 1
   16    19    22 1
   17    20    23 1
   18    22    24 1
   19    23    26 1
   20    24    26 1
   21     1    12 1
   22     2    13 1
   23     2    14 1
   24     2    17 1
   25     3    18 1
   26     4    21 1
   27    10    15 1
   28    22    25 1
   29    23    27 1
   30    24    28 1
   31    26    29 1
@<TRIPOS>SUBSTRUCTURE
      1 GYT               1 ****               0 ****  **** 
