@<TRIPOS>MOLECULE
modXNA-fragment:H5C:HEAD01:@N1:HEAD01STRIP:@C1',H1',O4',HHO4,C2',H2'1,H2'3,H2'2
   24    24     1     0     0
SMALL
USER_CHARGES


@<TRIPOS>ATOM
      1 O4'         2.1860    1.7360    0.7570 OH         1 H5C     -0.755850
      2 C1'         2.2900    0.4500    0.2120 CT         1 H5C      0.335122
      3 H1'         2.8250   -0.2040    0.8810 H2         1 H5C      0.054799
      4 N1          0.9270   -0.0730    0.1350 N*         1 H5C     -0.254542
      5 C6         -0.1350    0.7510   -0.0190 CM         1 H5C      0.079997
      6 H6          0.0840    1.7960   -0.0640 H4         1 H5C      0.209496
      7 C5         -1.3940    0.2870   -0.0870 CM         1 H5C     -0.352676
      8 C8         -2.5900    1.2040   -0.2260 CT         1 H5C      0.327610
      9 C4         -1.5120   -1.1490   -0.0110 CA         1 H5C      0.598171
     10 N4         -2.7420   -1.7170   -0.0460 N2         1 H5C     -0.908348
     11 H41        -2.7530   -2.7100   -0.1240 H          1 H5C      0.393380
     12 H42        -3.5100   -1.2340   -0.4520 H          1 H5C      0.393380
     13 N3         -0.5030   -1.9480    0.1210 NC         1 H5C     -0.780500
     14 C2          0.7660   -1.4660    0.1910 C          1 H5C      0.669114
     15 O2          1.7430   -2.1590    0.2840 O          1 H5C     -0.654100
     16 C2'         2.9610    0.4680   -1.1530 CT         1 H5C     -0.364327
     17 H2'1        2.4150    1.1140   -1.8330 HC         1 H5C      0.134213
     18 HHO4        3.0510    2.1140    0.8280 HO         1 H5C      0.477217
     19 H2'2        3.9780    0.8400   -1.0670 HC         1 H5C      0.134213
     20 H2'3        3.0010   -0.5340   -1.5590 HC         1 H5C      0.134213
     21 O9         -2.2690    2.5460    0.0020 OH         1 H5C     -0.704784
     22 H81        -3.3820    0.8830    0.4470 H1         1 H5C     -0.005127
     23 H82        -2.9930    1.1680   -1.2330 H1         1 H5C     -0.005127
     24 HO9        -2.0870    2.6720    0.9240 HO         1 H5C      0.436140
@<TRIPOS>BOND
    1     1     2 1
    2     2     4 1
    3     2    16 1
    4     4     5 1
    5     4    14 1
    6     5     7 1
    7     7     8 1
    8     7     9 1
    9     8    21 1
   10     9    10 1
   11     9    13 1
   12    13    14 1
   13    14    15 1
   14     1    18 1
   15     2     3 1
   16     5     6 1
   17     8    22 1
   18     8    23 1
   19    10    11 1
   20    10    12 1
   21    16    17 1
   22    16    19 1
   23    16    20 1
   24    21    24 1
@<TRIPOS>SUBSTRUCTURE
      1 H5C               1 ****               0 ****  **** 
