@<TRIPOS>MOLECULE
modXNA-fragment:H5U:HEAD01:@N1:HEAD01STRIP:@C1',H1',O4',HHO4,C2',H2'1,H2'3,H2'2
   20    20     1     0     0
SMALL
USER_CHARGES


@<TRIPOS>ATOM
      1 O4'        -2.4190   -1.1950    1.0000 OH         1 H5U     -0.727036
      2 C1'        -2.1800   -0.1030    0.1630 CT         1 H5U      0.277911
      3 H1'        -2.5720    0.8040    0.5940 H2         1 H5U      0.077793
      4 N1         -0.7290    0.0640    0.1260 N*         1 H5U     -0.146398
      5 C6          0.0950   -1.0560    0.0340 CM         1 H5U     -0.130908
      6 H6         -0.4040   -2.0010    0.0520 H4         1 H5U      0.280696
      7 C5          1.4130   -0.9550   -0.0430 CM         1 H5U      0.053786
      8 O5          2.2370   -2.0180   -0.1290 OH         1 H5U     -0.588878
      9 C4          2.0380    0.3660   -0.0240 C          1 H5U      0.557177
     10 O4          3.2250    0.5260   -0.0820 O          1 H5U     -0.593988
     11 N3          1.1490    1.4050    0.0650 NA         1 H5U     -0.695148
     12 H3          1.5260    2.3300    0.0700 H          1 H5U      0.404869
     13 C2         -0.2260    1.3330    0.1250 C          1 H5U      0.571593
     14 O2         -0.8990    2.3240    0.1620 O          1 H5U     -0.619234
     15 C2'        -2.7570   -0.3160   -1.2290 CT         1 H5U     -0.328355
     16 H2'1       -2.3390   -1.2060   -1.6860 HC         1 H5U      0.122129
     17 HHO4       -3.3520   -1.3460    1.0650 HO         1 H5U      0.475547
     18 H2'2       -3.8350   -0.4340   -1.1740 HC         1 H5U      0.122129
     19 H2'3       -2.5450    0.5400   -1.8580 HC         1 H5U      0.122129
     20 HO5         3.1320   -1.6930   -0.1530 HO         1 H5U      0.448016
@<TRIPOS>BOND
    1     1     2 1
    2     2     4 1
    3     2    15 1
    4     4     5 1
    5     4    13 1
    6     5     7 1
    7     7     8 1
    8     7     9 1
    9     9    10 1
   10     9    11 1
   11    11    13 1
   12    13    14 1
   13     1    17 1
   14     2     3 1
   15     5     6 1
   16     8    20 1
   17    11    12 1
   18    15    16 1
   19    15    18 1
   20    15    19 1
@<TRIPOS>SUBSTRUCTURE
      1 H5U               1 ****               0 ****  **** 
