@<TRIPOS>MOLECULE
modXNA-fragment:H6A:HEAD01:@N9:HEAD01STRIP:@C1',H1',O4',HHO4,C2',H2'1,H2'3,H2'2
   42    43     1     0     0
SMALL
USER_CHARGES


@<TRIPOS>ATOM
      1 O4'        -6.5040   -1.7090   -0.0480 OH         1 H6A     -0.742983
      2 C1'        -5.9680   -0.4210   -0.0720 CT         1 H6A      0.314152
      3 H1'        -6.1910    0.1070    0.8460 H2         1 H6A      0.063559
      4 N9         -4.5300   -0.6000   -0.1010 N*         1 H6A     -0.114635
      5 C8         -3.8170   -1.6420   -0.6390 CK         1 H6A      0.191424
      6 H8         -4.3180   -2.4800   -1.0730 H5         1 H6A      0.166206
      7 N7         -2.5450   -1.5070   -0.5460 NB         1 H6A     -0.620143
      8 C5         -2.3800   -0.2950    0.0930 CB         1 H6A     -0.019008
      9 C6         -1.2570    0.4280    0.4910 CA         1 H6A      0.583588
     10 N6         -0.0120   -0.1110    0.2650 N2         1 H6A     -0.828907
     11 C11         1.2090    0.5500    0.2330 C          1 H6A      0.841765
     12 H6         -0.0320   -1.0240   -0.1360 H          1 H6A      0.391515
     13 N1         -1.4200    1.5760    1.1110 NC         1 H6A     -0.800805
     14 C2         -2.6580    2.0160    1.3110 CQ         1 H6A      0.507908
     15 H2         -2.7320    2.9630    1.8130 H5         1 H6A      0.048904
     16 N3         -3.7930    1.4420    0.9790 NC         1 H6A     -0.790495
     17 C4         -3.6010    0.2770    0.3770 CB         1 H6A      0.351196
     18 C2'        -6.4590    0.3820   -1.2670 CT         1 H6A     -0.349522
     19 H2'1       -6.2220   -0.1350   -2.1900 HC         1 H6A      0.131233
     20 HHO4       -7.4470   -1.6650   -0.1290 HO         1 H6A      0.480430
     21 H2'2       -7.5350    0.5210   -1.2110 HC         1 H6A      0.131233
     22 H2'3       -5.9950    1.3610   -1.2780 HC         1 H6A      0.131233
     23 N11         2.2540   -0.3210    0.1270 N          1 H6A     -0.784467
     24 O11         1.3570    1.7330    0.2540 O          1 H6A     -0.590246
     25 C10         3.5990    0.1960    0.1620 CT         1 H6A     -0.150104
     26 H9          2.1470   -1.2480    0.4740 H          1 H6A      0.398828
     27 C10         4.5680   -1.0040    0.1120 CT         1 H6A      0.309506
     28 H10         3.7720    0.7770    1.0620 H1         1 H6A      0.141647
     29 C12         3.8380    1.1050   -1.0360 C          1 H6A      0.592929
     30 C11         6.0360   -0.6050    0.2500 CT         1 H6A     -0.044614
     31 H10         4.4130   -1.5090   -0.8320 H1         1 H6A      0.076343
     32 O13         4.1930   -1.9420    1.0940 OH         1 H6A     -0.705764
     33 O14         4.5300    2.1880   -0.7100 OH         1 H6A     -0.679580
     34 O15         3.5090    0.8550   -2.1470 O          1 H6A     -0.584829
     35 C12         6.9840   -1.7980    0.1260 CT         1 H6A     -0.126690
     36 1H11        6.1800   -0.1130    1.2120 HC         1 H6A      0.030921
     37 2H11        6.2830    0.1330   -0.5050 HC         1 H6A      0.030921
     38 3HO1        4.4220   -1.6130    1.9540 HO         1 H6A      0.443053
     39 4HO1        4.6440    2.7160   -1.4950 HO         1 H6A      0.484176
     40 1H12        8.0140   -1.4780    0.2370 HC         1 H6A      0.047317
     41 2H12        6.8860   -2.2700   -0.8470 HC         1 H6A      0.047317
     42 3H12        6.7800   -2.5480    0.8800 HC         1 H6A      0.047317
@<TRIPOS>BOND
    1     1     2 1
    2     2     4 1
    3     2    18 1
    4     4     5 1
    5     4    17 1
    6     5     7 1
    7     7     8 1
    8     8     9 1
    9     8    17 1
   10     9    10 1
   11     9    13 1
   12    10    11 1
   13    11    23 1
   14    11    24 1
   15    13    14 1
   16    14    16 1
   17    16    17 1
   18    23    25 1
   19    25    27 1
   20    25    29 1
   21    27    30 1
   22    27    32 1
   23    29    33 1
   24    29    34 1
   25    30    35 1
   26     1    20 1
   27     2     3 1
   28     5     6 1
   29    10    12 1
   30    14    15 1
   31    18    19 1
   32    18    21 1
   33    18    22 1
   34    23    26 1
   35    25    28 1
   36    27    31 1
   37    30    36 1
   38    30    37 1
   39    32    38 1
   40    33    39 1
   41    35    40 1
   42    35    41 1
   43    35    42 1
@<TRIPOS>SUBSTRUCTURE
      1 H6A               1 ****               0 ****  **** 
