@<TRIPOS>MOLECULE
modXNA-fragment:HMA:HEAD01:@N9:HEAD01STRIP:@C1',H1',O4',HHO4,C2',H2'1,H2'3,H2'2
   26    27     1     0     0
SMALL
USER_CHARGES


@<TRIPOS>ATOM
      1 O4'        -3.9120   -0.6750    0.9220 OH         1 HMA     -0.737020
      2 C1'        -3.1420    0.3020    0.2900 CT         1 HMA      0.305192
      3 H1'        -3.0160    1.1680    0.9260 H2         1 HMA      0.064144
      4 N9         -1.8250   -0.2830    0.1320 N*         1 HMA     -0.154240
      5 C8         -1.5000   -1.6080   -0.0270 CK         1 HMA      0.253151
      6 H8         -2.2570   -2.3630   -0.0040 H5         1 HMA      0.142242
      7 N7         -0.2450   -1.8200   -0.1770 NB         1 HMA     -0.657120
      8 C5          0.3200   -0.5620   -0.1190 CB         1 HMA     -0.073234
      9 C6          1.6380   -0.1000   -0.2110 CA         1 HMA      0.613335
     10 N6          2.6800   -0.9280   -0.4230 N2         1 HMA     -0.798633
     11 C11         4.0430   -0.4580   -0.4000 CT         1 HMA      0.306283
     12 H6          2.5040   -1.8970   -0.2740 H          1 HMA      0.435963
     13 N1          1.8610    1.2060   -0.0950 NC         1 HMA     -0.736100
     14 C2          0.8210    2.0180    0.0770 CQ         1 HMA      0.423868
     15 H2          1.0650    3.0620    0.1550 H5         1 HMA      0.060709
     16 N3         -0.4490    1.7110    0.1690 NC         1 HMA     -0.756753
     17 C4         -0.6470    0.3970    0.0730 CB         1 HMA      0.373348
     18 C2'        -3.7350    0.7210   -1.0470 CT         1 HMA     -0.349170
     19 H2'1       -3.8460   -0.1420   -1.6950 HC         1 HMA      0.129751
     20 HHO4       -4.8110   -0.3830    0.9820 HO         1 HMA      0.479148
     21 H2'2       -4.7120    1.1740   -0.9000 HC         1 HMA      0.129751
     22 H2'3       -3.0960    1.4500   -1.5300 HC         1 HMA      0.129751
     23 O9          4.4630    0.0050    0.8380 OH         1 HMA     -0.652849
     24 1H11        4.1500    0.3110   -1.1530 H2         1 HMA      0.036712
     25 2H11        4.6750   -1.2940   -0.6570 H2         1 HMA      0.036712
     26 HO9         4.0040    0.8180    1.0120 HO         1 HMA      0.409970
@<TRIPOS>BOND
    1     1     2 1
    2     2     4 1
    3     2    18 1
    4     4     5 1
    5     4    17 1
    6     5     7 1
    7     7     8 1
    8     8     9 1
    9     8    17 1
   10     9    10 1
   11     9    13 1
   12    10    11 1
   13    11    23 1
   14    13    14 1
   15    14    16 1
   16    16    17 1
   17     1    20 1
   18     2     3 1
   19     5     6 1
   20    10    12 1
   21    11    24 1
   22    11    25 1
   23    14    15 1
   24    18    19 1
   25    18    21 1
   26    18    22 1
   27    23    26 1
@<TRIPOS>SUBSTRUCTURE
      1 HMA               1 ****               0 ****  **** 
