@<TRIPOS>MOLECULE
modXNA-fragment:HMU:HEAD01:@N1:HEAD01STRIP:@C1',H1',O4',HHO4,C2',H2'1,H2'3,H2'2
   29    29     1     0     0
SMALL
USER_CHARGES


@<TRIPOS>ATOM
      1 O4'        -2.9540   -1.8950    0.7290 OH         1 HMU     -0.736140
      2 C1'        -3.2380   -0.6480    0.1730 CT         1 HMU      0.272641
      3 H1'        -3.8610   -0.0660    0.8330 H2         1 HMU      0.072154
      4 N1         -1.9560    0.0590    0.1010 N*         1 HMU     -0.100720
      5 C6         -0.7920   -0.6210   -0.1740 CM         1 HMU     -0.010696
      6 H6         -0.9060   -1.6750   -0.3050 H4         1 HMU      0.245818
      7 C5          0.4000   -0.0320   -0.2670 CM         1 HMU     -0.303994
      8 C8          1.6680   -0.8030   -0.5810 CT         1 HMU      0.310776
      9 C4          0.4750    1.4110   -0.0900 C          1 HMU      0.553816
     10 O4          1.4810    2.0600   -0.1710 O          1 HMU     -0.574624
     11 N3         -0.7350    2.0150    0.1800 NA         1 HMU     -0.625725
     12 H3         -0.7260    3.0060    0.3070 H          1 HMU      0.375966
     13 C2         -1.9670    1.4210    0.2750 C          1 HMU      0.549060
     14 O2         -2.9630    2.0510    0.4810 O          1 HMU     -0.605285
     15 C2'        -3.8870   -0.7680   -1.1970 CT         1 HMU     -0.327215
     16 H2'1       -3.2490   -1.3260   -1.8730 HC         1 HMU      0.123532
     17 HHO4       -3.7580   -2.3830    0.8430 HO         1 HMU      0.484115
     18 H2'2       -4.8390   -1.2860   -1.1160 HC         1 HMU      0.123532
     19 H2'3       -4.0750    0.2150   -1.6110 HC         1 HMU      0.123532
     20 O8          1.4080   -2.1690   -0.7100 OH         1 HMU     -0.712721
     21 C9          2.6960   -0.6560    0.5590 C          1 HMU      0.560115
     22 HO8         1.4010   -2.5460    0.1640 HO         1 HMU      0.433843
     23 O10         3.8350   -0.0260    0.3890 OS         1 HMU     -0.426006
     24 O12         2.4520   -1.1890    1.5930 O          1 HMU     -0.601472
     25 C10         4.2440    0.5640   -0.8330 CT         1 HMU      0.057448
     26 1H10        5.2040    1.0090   -0.6220 H1         1 HMU      0.055304
     27 2H10        3.5500    1.3270   -1.1430 H1         1 HMU      0.055304
     28 3H10        4.3650   -0.1890   -1.6010 H1         1 HMU      0.055304
     29 H8          2.0650   -0.4720   -1.5280 H1         1 HMU      0.047510
@<TRIPOS>BOND
    1     1     2 1
    2     2     4 1
    3     2    15 1
    4     4     5 1
    5     4    13 1
    6     5     7 1
    7     7     8 1
    8     7     9 1
    9     8    20 1
   10     8    21 1
   11     9    10 1
   12     9    11 1
   13    11    13 1
   14    13    14 1
   15    21    23 1
   16    21    24 1
   17    23    25 1
   18     1    17 1
   19     2     3 1
   20     5     6 1
   21     8    29 1
   22    11    12 1
   23    15    16 1
   24    15    18 1
   25    15    19 1
   26    20    22 1
   27    25    26 1
   28    25    27 1
   29    25    28 1
@<TRIPOS>SUBSTRUCTURE
      1 HMU               1 ****               0 ****  **** 
