@<TRIPOS>MOLECULE
modXNA-fragment:HNA:HEAD01:@N9:HEAD01STRIP:@C1',H1',O4',HHO4,C2',H2'1,H2'3,H2'2
   23    24     1     0     0
SMALL
USER_CHARGES


@<TRIPOS>ATOM
      1 O4'         3.5650   -0.7360   -0.8190 OH         1 HNA     -0.737192
      2 C1'         2.7920    0.2730   -0.2460 CT         1 HNA      0.282157
      3 H1'         2.6990    1.1180   -0.9170 H2         1 HNA      0.077126
      4 N9          1.4610   -0.2870   -0.1110 N*         1 HNA     -0.147622
      5 C8          1.1090   -1.6030    0.0650 CK         1 HNA      0.288475
      6 H8          1.8540   -2.3690    0.0820 H5         1 HNA      0.133361
      7 N7         -0.1540   -1.7950    0.1760 NB         1 HNA     -0.677316
      8 C5         -0.6970   -0.5300    0.0760 CB         1 HNA     -0.131165
      9 C6         -2.0030   -0.0420    0.0960 CA         1 HNA      0.739260
     10 N6         -3.0630   -0.8780    0.3480 N2         1 HNA     -0.689820
     11 O11        -4.2630   -0.5040   -0.2170 OH         1 HNA     -0.439418
     12 H6         -2.8920   -1.8360    0.1290 H          1 HNA      0.473680
     13 N1         -2.2120    1.2530   -0.0450 NC         1 HNA     -0.831001
     14 C2         -1.1600    2.0470   -0.2100 CQ         1 HNA      0.468632
     15 H2         -1.3850    3.0920   -0.3220 H5         1 HNA      0.061541
     16 N3          0.1110    1.7200   -0.2470 NC         1 HNA     -0.783706
     17 C4          0.2920    0.4130   -0.1050 CB         1 HNA      0.390358
     18 C2'         3.3480    0.7310    1.0940 CT         1 HNA     -0.338466
     19 H2'1        3.4250   -0.1100    1.7740 HC         1 HNA      0.127902
     20 HHO4        4.4700   -0.4600   -0.8620 HO         1 HNA      0.482317
     21 H2'2        4.3360    1.1650    0.9620 HC         1 HNA      0.127902
     22 H2'3        2.7050    1.4850    1.5290 HC         1 HNA      0.127902
     23 1HO1       -4.7070    0.0020    0.4510 HO         1 HNA      0.458487
@<TRIPOS>BOND
    1     1     2 1
    2     2     4 1
    3     2    18 1
    4     4     5 1
    5     4    17 1
    6     5     7 1
    7     7     8 1
    8     8     9 1
    9     8    17 1
   10     9    10 1
   11     9    13 1
   12    10    11 1
   13    13    14 1
   14    14    16 1
   15    16    17 1
   16     1    20 1
   17     2     3 1
   18     5     6 1
   19    10    12 1
   20    11    23 1
   21    14    15 1
   22    18    19 1
   23    18    21 1
   24    18    22 1
@<TRIPOS>SUBSTRUCTURE
      1 HNA               1 ****               0 ****  **** 
