@<TRIPOS>MOLECULE
modXNA-fragment:HOU:HEAD01:@N1:HEAD01STRIP:@C1',H1',O4',HHO4,C2',H2'1,H2'3,H2'2
   27    27     1     0     0
SMALL
USER_CHARGES


@<TRIPOS>ATOM
      1 O4'        -2.3410   -1.9710    1.0850 OH         1 HOU     -0.738067
      2 C1'        -2.8080   -0.8590    0.3830 CT         1 HOU      0.305908
      3 H1'        -3.4840   -0.2780    0.9890 H2         1 HOU      0.061386
      4 N1         -1.6350   -0.0100    0.1630 N*         1 HOU     -0.126676
      5 C6         -0.4190   -0.5670   -0.1520 CM         1 HOU     -0.002894
      6 H6         -0.4070   -1.6340   -0.2070 H4         1 HOU      0.230211
      7 C5          0.6870    0.1450   -0.3790 CM         1 HOU     -0.190982
      8 C8          1.9950   -0.5140   -0.7830 CT         1 HOU      0.174094
      9 C4          0.5950    1.5950   -0.3150 C          1 HOU      0.549450
     10 O4          1.5050    2.3620   -0.5000 O          1 HOU     -0.626128
     11 N3         -0.6630    2.0740   -0.0190 NA         1 HOU     -0.640093
     12 H3         -0.7690    3.0660    0.0180 H          1 HOU      0.394462
     13 C2         -1.8050    1.3520    0.2150 C          1 HOU      0.532291
     14 O2         -2.8560    1.8800    0.4350 O          1 HOU     -0.598580
     15 C2'        -3.4730   -1.2450   -0.9290 CT         1 HOU     -0.314123
     16 H2'1       -2.7870   -1.8010   -1.5580 HC         1 HOU      0.118302
     17 HHO4       -3.0490   -2.5870    1.2150 HO         1 HOU      0.480078
     18 H2'2       -4.3440   -1.8660   -0.7380 HC         1 HOU      0.118302
     19 H2'3       -3.8040   -0.3590   -1.4560 HC         1 HOU      0.118302
     20 O8          1.7630   -1.8190   -1.1960 OH         1 HOU     -0.667739
     21 C9          3.0210   -0.5500    0.3640 C          1 HOU      0.559643
     22 HO8         2.2890   -2.3860   -0.6370 HO         1 HOU      0.416496
     23 O10         3.3720   -1.6150    0.8040 O          1 HOU     -0.598672
     24 N12         3.4870    0.6270    0.7930 N          1 HOU     -1.078366
     25 1H12        3.1540    1.4890    0.4190 H          1 HOU      0.468512
     26 2H12        4.1410    0.6290    1.5420 H          1 HOU      0.468512
     27 H8          2.4280    0.0590   -1.5970 H1         1 HOU      0.076882
@<TRIPOS>BOND
    1     1     2 1
    2     2     4 1
    3     2    15 1
    4     4     5 1
    5     4    13 1
    6     5     7 1
    7     7     8 1
    8     7     9 1
    9     8    20 1
   10     8    21 1
   11     9    10 1
   12     9    11 1
   13    11    13 1
   14    13    14 1
   15    21    23 1
   16    21    24 1
   17     1    17 1
   18     2     3 1
   19     5     6 1
   20     8    27 1
   21    11    12 1
   22    15    16 1
   23    15    18 1
   24    15    19 1
   25    20    22 1
   26    24    25 1
   27    24    26 1
@<TRIPOS>SUBSTRUCTURE
      1 HOU               1 ****               0 ****  **** 
