@<TRIPOS>MOLECULE
modXNA-fragment:HTA:HEAD01:@N9:HEAD01STRIP:@C1',H1',O4',HHO4,C2',H2'1,H2'3,H2'2
   40    41     1     0     0
SMALL
USER_CHARGES


@<TRIPOS>ATOM
      1 O4'         6.4240   -1.7750    0.1690 OH         1 HTA     -0.739414
      2 C1'         5.9310   -0.4780    0.0340 CT         1 HTA      0.306321
      3 H1'         6.1270   -0.0910   -0.9580 H2         1 HTA      0.064944
      4 N9          4.4890   -0.6010    0.1450 N*         1 HTA     -0.099778
      5 C8          3.7730   -1.5440    0.8400 CK         1 HTA      0.191039
      6 H8          4.2710   -2.3350    1.3570 H5         1 HTA      0.168243
      7 N7          2.5010   -1.3820    0.7800 NB         1 HTA     -0.606182
      8 C5          2.3420   -0.2580   -0.0020 CB         1 HTA     -0.040047
      9 C6          1.2240    0.4420   -0.4460 CA         1 HTA      0.588374
     10 N6         -0.0230   -0.0340   -0.0870 N2         1 HTA     -0.796799
     11 C11        -1.2400    0.6010   -0.1660 C          1 HTA      0.791243
     12 H6          0.0130   -0.8860    0.4310 H          1 HTA      0.373085
     13 N1          1.3850    1.4980   -1.2100 NC         1 HTA     -0.757849
     14 C2          2.6240    1.8710   -1.5150 CQ         1 HTA      0.474395
     15 H2          2.7000    2.7440   -2.1350 H5         1 HTA      0.059230
     16 N3          3.7560    1.3080   -1.1590 NC         1 HTA     -0.761203
     17 C4          3.5640    0.2360   -0.4040 CB         1 HTA      0.347124
     18 C2'         6.4970    0.4650    1.0840 CT         1 HTA     -0.358972
     19 H2'1        6.2870    0.0890    2.0790 HC         1 HTA      0.136646
     20 HHO4        7.3710   -1.7570    0.2010 HO         1 HTA      0.482230
     21 H2'2        7.5730    0.5570    0.9650 HC         1 HTA      0.136646
     22 H2'3        6.0630    1.4520    0.9770 HC         1 HTA      0.136646
     23 N11        -2.2740   -0.1780    0.2570 N          1 HTA     -0.722645
     24 O11        -1.4030    1.7330   -0.5370 O          1 HTA     -0.623049
     25 H9         -2.1390   -1.1650    0.2830 H          1 HTA      0.394719
     26 C10        -3.6520    0.2310    0.0130 CT         1 HTA     -0.122835
     27 C10        -4.5380   -1.0230   -0.0330 CT         1 HTA      0.285113
     28 C12        -4.1220    1.2060    1.1030 C          1 HTA      0.581508
     29 H10        -3.6980    0.7520   -0.9400 H1         1 HTA      0.089002
     30 C11        -5.9280   -0.7660   -0.6010 CT         1 HTA      0.066573
     31 H10        -4.6390   -1.4270    0.9630 H1         1 HTA      0.079695
     32 O13        -3.9070   -2.0420   -0.7870 OH         1 HTA     -0.716984
     33 O14        -3.4990    2.3630    1.1410 OH         1 HTA     -0.618048
     34 O15        -5.0010    0.9420    1.8530 O          1 HTA     -0.556132
     35 O12        -6.6890   -1.9350   -0.5910 OH         1 HTA     -0.642951
     36 1H11       -5.8310   -0.3750   -1.6180 H1         1 HTA      0.058556
     37 2H11       -6.4530   -0.0360   -0.0070 H1         1 HTA      0.058556
     38 3HO1       -3.7920   -1.7550   -1.6850 HO         1 HTA      0.446532
     39 4HO1       -2.7870    2.4190    0.5020 HO         1 HTA      0.449052
     40 2HO1       -6.1630   -2.6450   -0.9350 HO         1 HTA      0.415363
@<TRIPOS>BOND
    1     1     2 1
    2     2     4 1
    3     2    18 1
    4     4     5 1
    5     4    17 1
    6     5     7 1
    7     7     8 1
    8     8     9 1
    9     8    17 1
   10     9    10 1
   11     9    13 1
   12    10    11 1
   13    11    23 1
   14    11    24 1
   15    13    14 1
   16    14    16 1
   17    16    17 1
   18    23    26 1
   19    26    27 1
   20    26    28 1
   21    27    30 1
   22    27    32 1
   23    28    33 1
   24    28    34 1
   25    30    35 1
   26     1    20 1
   27     2     3 1
   28     5     6 1
   29    10    12 1
   30    14    15 1
   31    18    19 1
   32    18    21 1
   33    18    22 1
   34    23    25 1
   35    26    29 1
   36    27    31 1
   37    30    36 1
   38    30    37 1
   39    32    38 1
   40    33    39 1
   41    35    40 1
@<TRIPOS>SUBSTRUCTURE
      1 HTA               1 ****               0 ****  **** 
