@<TRIPOS>MOLECULE
modXNA-fragment:HWB:HEAD01:@N9:HEAD01STRIP:@C1',H1',O4',HHO4,C2',H2'1,H2'3,H2'2
   54    56     1     0     0
SMALL
USER_CHARGES


@<TRIPOS>ATOM
      1 O4'        -6.6820   -0.2400    1.0150 OH         1 HWB     -0.624477
      2 C1'        -6.2170   -0.4620   -0.2840 CT         1 HWB      0.237565
      3 H1'        -6.1680    0.4700   -0.8270 H2         1 HWB      0.073083
      4 N9         -4.8620   -0.9590   -0.1740 N*         1 HWB     -0.013681
      5 C8         -4.4830   -2.2950   -0.1950 CK         1 HWB      0.182231
      6 H8         -5.2050   -3.0730   -0.3110 H5         1 HWB      0.135511
      7 N7         -3.2310   -2.4690   -0.0760 NB         1 HWB     -0.579348
      8 C5         -2.7050   -1.2050    0.0590 CB         1 HWB      0.105442
      9 C6         -1.3150   -0.8550    0.1720 C          1 HWB      0.463889
     10 O6         -0.3830   -1.6110    0.1790 O          1 HWB     -0.541953
     11 N1         -1.1470    0.5310    0.2620 N*         1 HWB     -0.204151
     12 C12         0.0400    1.2870    0.4060 CA         1 HWB      0.064507
     13 C2         -2.1610    1.4540    0.2370 CB         1 HWB      0.260783
     14 N2         -1.7490    2.6600    0.3370 NB         1 HWB     -0.597831
     15 C15        -0.3710    2.5670    0.4460 CC         1 HWB      0.281979
     16 N3         -3.4830    1.0720    0.1320 N*         1 HWB     -0.012700
     17 C4         -3.7000   -0.2690    0.0180 CB         1 HWB     -0.037052
     18 C2'        -7.1260   -1.4140   -1.0490 CT         1 HWB     -0.374963
     19 H2'1       -7.2990   -2.3260   -0.4930 HC         1 HWB      0.144740
     20 HHO4       -7.5890    0.0370    0.9940 HO         1 HWB      0.426727
     21 H2'2       -8.0860   -0.9310   -1.2010 HC         1 HWB      0.144740
     22 H2'3       -6.7150   -1.6540   -2.0220 HC         1 HWB      0.144740
     23 C24        -4.5030    2.1110    0.2520 CT         1 HWB     -0.036906
     24 1H24       -4.0430    2.9640    0.7190 H1         1 HWB      0.070406
     25 2H24       -5.3120    1.7550    0.8690 H1         1 HWB      0.070406
     26 3H24       -4.8700    2.4090   -0.7230 H1         1 HWB      0.070406
     27 C27         0.4340    3.8200    0.5860 CT         1 HWB     -0.363303
     28 1H27        1.4950    3.6150    0.6280 HC         1 HWB      0.138039
     29 2H27        0.1480    4.3540    1.4870 HC         1 HWB      0.138039
     30 3H27        0.2470    4.4780   -0.2560 HC         1 HWB      0.138039
     31 C31         1.4260    0.7190    0.5220 CT         1 HWB     -0.433591
     32 C32         2.1340    0.4790   -0.8270 CT         1 HWB      0.345567
     33 C33         3.5710    0.0540   -0.6010 CM         1 HWB      0.090642
     34 C34         4.6860    0.9980   -0.5390 C          1 HWB      0.540650
     35 O35         4.2680    2.2410   -0.2890 OS         1 HWB     -0.347825
     36 1H31        2.0230    1.4270    1.0800 HC         1 HWB      0.185098
     37 2H31        1.4160   -0.2000    1.0920 HC         1 HWB      0.185098
     38 O15         1.4830   -0.4710   -1.6220 OH         1 HWB     -0.688355
     39 H32         2.1330    1.4070   -1.3810 H1         1 HWB      0.002044
     40 5HO1        0.9710   -1.0590   -1.0750 HO         1 HWB      0.434547
     41 N41         3.8500   -1.3060   -0.6130 N          1 HWB     -0.826974
     42 H41         3.3670   -1.8690   -1.2770 H          1 HWB      0.407440
     43 C18         4.5940   -1.9360    0.3370 C          1 HWB      0.809808
     44 C19         5.2650    3.2440   -0.2380 CT         1 HWB     -0.225101
     45 O45         5.8310    0.7180   -0.7160 O          1 HWB     -0.537833
     46 1H19        5.7820    3.3140   -1.1840 H1         1 HWB      0.154912
     47 2H19        5.9790    3.0280    0.5430 H1         1 HWB      0.154912
     48 3H19        4.7460    4.1660   -0.0270 H1         1 HWB      0.154912
     49 O49         4.7270   -3.2190    0.0300 OS         1 HWB     -0.446934
     50 C50         5.4550   -4.0130    0.9480 CT         1 HWB      0.021303
     51 O21         5.0430   -1.4240    1.3150 O          1 HWB     -0.643571
     52 1H50        6.4660   -3.6460    1.0460 H1         1 HWB      0.070750
     53 2H50        5.4550   -5.0090    0.5350 H1         1 HWB      0.070750
     54 3H50        4.9770   -4.0080    1.9160 H1         1 HWB      0.070750
@<TRIPOS>BOND
    1     1     2 1
    2     2     4 1
    3     2    18 1
    4     4     5 1
    5     4    17 1
    6     5     7 1
    7     7     8 1
    8     8     9 1
    9     8    17 1
   10     9    10 1
   11     9    11 1
   12    11    12 1
   13    11    13 1
   14    12    15 1
   15    12    31 1
   16    13    14 1
   17    13    16 1
   18    14    15 1
   19    15    27 1
   20    16    17 1
   21    16    23 1
   22    31    32 1
   23    32    33 1
   24    32    38 1
   25    33    34 1
   26    33    41 1
   27    34    35 1
   28    34    45 1
   29    35    44 1
   30    41    43 1
   31    43    49 1
   32    43    51 1
   33    49    50 1
   34     1    20 1
   35     2     3 1
   36     5     6 1
   37    18    19 1
   38    18    21 1
   39    18    22 1
   40    23    24 1
   41    23    25 1
   42    23    26 1
   43    27    28 1
   44    27    29 1
   45    27    30 1
   46    31    36 1
   47    31    37 1
   48    32    39 1
   49    38    40 1
   50    41    42 1
   51    44    46 1
   52    44    47 1
   53    44    48 1
   54    50    52 1
   55    50    53 1
   56    50    54 1
@<TRIPOS>SUBSTRUCTURE
      1 HWB               1 ****               0 ****  **** 
