@<TRIPOS>MOLECULE
modXNA-fragment:I4G:HEAD01:@N9:HEAD01STRIP:@C1',H1',O4',HHO4,C2',H2'1,H2'3,H2'2
   28    30     1     0     0
SMALL
USER_CHARGES


@<TRIPOS>ATOM
      1 O4'         2.5980   -2.0400    0.6190 OH         1 I4G     -0.647621
      2 C1'         3.0430   -1.0790   -0.2970 CT         1 I4G      0.280578
      3 H1'         2.8610   -1.4370   -1.3060 H2         1 I4G      0.032744
      4 N9          2.2100    0.0840   -0.0800 N*         1 I4G     -0.026946
      5 C8          2.5660    1.4220    0.0080 CK         1 I4G      0.102804
      6 H8          3.5890    1.7270    0.0290 H5         1 I4G      0.154279
      7 N7          1.5630    2.2040    0.0660 NB         1 I4G     -0.519549
      8 C5          0.4560    1.3840    0.0190 CB         1 I4G      0.003176
      9 C6         -0.9500    1.7410    0.0480 C          1 I4G      0.507226
     10 O6         -1.4450    2.8200    0.1250 O          1 I4G     -0.538379
     11 N1         -1.7450    0.5790   -0.0320 N*         1 I4G     -0.118382
     12 C13        -1.3220   -0.7160   -0.0990 CB         1 I4G      0.514661
     13 N2         -2.2750   -1.5700   -0.0910 NB         1 I4G     -0.716416
     14 N3          0.0250   -0.9880   -0.1720 NA         1 I4G     -0.657902
     15 C4          0.8540    0.0860   -0.0680 CB         1 I4G      0.159161
     16 C2'         4.5190   -0.7740   -0.1180 CT         1 I4G     -0.299605
     17 H2'1        4.8720   -0.0600   -0.8520 HC         1 I4G      0.118542
     18 HHO4        3.0250   -2.8700    0.4470 HO         1 I4G      0.438356
     19 H2'2        5.0830   -1.6900   -0.2520 HC         1 I4G      0.118542
     20 H2'3        4.7100   -0.3980    0.8800 HC         1 I4G      0.118542
     21 C23        -3.4340   -0.8070   -0.0160 CC         1 I4G      0.415102
     22 C24        -3.1370    0.5020    0.0190 CA         1 I4G     -0.413698
     23 1C24       -4.7730   -1.4680    0.0120 CT         1 I4G     -0.511206
     24 1H24       -5.5670   -0.7330    0.0730 HC         1 I4G      0.143056
     25 1H24       -4.8520   -2.1330    0.8660 HC         1 I4G      0.143056
     26 1H24       -4.9230   -2.0640   -0.8820 HC         1 I4G      0.143056
     27 H24        -3.7320    1.3850    0.0740 H4         1 I4G      0.274112
     28 H3          0.3370   -1.8970    0.0880 H          1 I4G      0.419231
@<TRIPOS>BOND
    1     1     2 1
    2     2     4 1
    3     2    16 1
    4     4     5 1
    5     4    15 1
    6     5     7 1
    7     7     8 1
    8     8     9 1
    9     8    15 1
   10     9    10 1
   11     9    11 1
   12    11    12 1
   13    11    22 1
   14    12    13 1
   15    12    14 1
   16    13    21 1
   17    14    15 1
   18    21    22 1
   19    21    23 1
   20     1    18 1
   21     2     3 1
   22     5     6 1
   23    14    28 1
   24    16    17 1
   25    16    19 1
   26    16    20 1
   27    22    27 1
   28    23    24 1
   29    23    25 1
   30    23    26 1
@<TRIPOS>SUBSTRUCTURE
      1 I4G               1 ****               0 ****  **** 
