@<TRIPOS>MOLECULE
modXNA-fragment:I5U:HEAD01:@N1:HEAD01STRIP:@C1',H1',C2',H2'1,H2'2,H2'3,O4',HHO4
   19    19     1     0     0
SMALL
USER_CHARGES


@<TRIPOS>ATOM
      1 C1'         3.0750   -0.9840   -0.0970 CT         1 I5U      0.433157
      2 C2'         3.2650   -1.6720    1.2560 CT         1 I5U     -0.297657
      3 O4'         2.8160   -2.0010   -1.0670 OH         1 I5U     -0.832722
      4 O4         -1.2010    2.5680    0.0620 O          1 I5U     -0.775637
      5 C4         -0.3050    1.7250    0.0170 C          1 I5U      1.011261
      6 N3          1.0400    2.1340   -0.0160 NA         1 I5U     -0.995658
      7 C2          2.1650    1.3310   -0.0620 C          1 I5U      0.823308
      8 O2          3.3090    1.8080   -0.0800 O          1 I5U     -0.776188
      9 N1          1.9200   -0.0360   -0.0830 N*         1 I5U     -0.441443
     10 C6          0.6190   -0.5410   -0.0580 CM         1 I5U      0.289061
     11 C5         -0.4830    0.2560   -0.0100 CM         1 I5U     -0.565110
     12 H1'         3.9400   -0.3960   -0.3640 H2         1 I5U      0.070820
     13 H2'1        4.1270   -2.3310    1.2030 HC         1 I5U      0.121501
     14 H2'2        3.4290   -0.9300    2.0340 HC         1 I5U      0.121501
     15 H3          1.2080    3.1220    0.0000 H          1 I5U      0.462845
     16 H6          0.5520   -1.6100   -0.1020 H4         1 I5U      0.134515
     17 I          -2.4300   -0.5320    0.0150 I          1 I5U      0.067665
     18 H2'3        2.3930   -2.2720    1.5100 HC         1 I5U      0.121501
     19 HHO4        3.0160   -1.7480   -1.9690 HO         1 I5U      0.492329
@<TRIPOS>BOND
    1     1     2 1
    2     1     3 1
    3     1     9 1
    4     4     5 1
    5     5     6 1
    6     5    11 1
    7     6     7 1
    8     7     8 1
    9     7     9 1
   10     9    10 1
   11    10    11 1
   12    11    17 1
   13     1    12 1
   14     2    13 1
   15     2    14 1
   16     2    18 1
   17     3    19 1
   18     6    15 1
   19    10    16 1
@<TRIPOS>SUBSTRUCTURE
      1 I5U               1 ****               0 ****  **** 
