@<TRIPOS>MOLECULE
modXNA-fragment:I6A:HEAD01:@N9:HEAD01STRIP:@C1',H1',O4',HHO4,C2',H2'1,H2'3,H2'2
   35    36     1     0     0
SMALL
USER_CHARGES


@<TRIPOS>ATOM
      1 O4'        -4.8750   -1.3920    0.8580 OH         1 I6A     -0.737747
      2 C1'        -4.3530   -0.2690    0.2140 CT         1 I6A      0.311950
      3 H1'        -4.4980    0.6210    0.8120 H2         1 I6A      0.063788
      4 N9         -2.9230   -0.4850    0.1450 N*         1 I6A     -0.152531
      5 C8         -2.2490   -1.6790    0.0640 CK         1 I6A      0.218247
      6 H8         -2.7760   -2.6080    0.0890 H5         1 I6A      0.149736
      7 N7         -0.9760   -1.5490   -0.0190 NB         1 I6A     -0.631777
      8 C5         -0.7720   -0.1850    0.0040 CB         1 I6A     -0.084032
      9 C6          0.3840    0.6110   -0.0490 CA         1 I6A      0.557531
     10 N6          1.6060    0.0690   -0.1650 N2         1 I6A     -0.559431
     11 C11         2.8450    0.8260   -0.0820 CT         1 I6A      0.196619
     12 H6          1.6580   -0.9210   -0.0770 H          1 I6A      0.343694
     13 N1          0.2420    1.9310    0.0070 NC         1 I6A     -0.864419
     14 C2         -0.9830    2.4370    0.0960 CQ         1 I6A      0.537356
     15 H2         -1.0310    3.5110    0.1310 H5         1 I6A      0.030759
     16 N3         -2.1320    1.8060    0.1490 NC         1 I6A     -0.830962
     17 C4         -1.9660    0.4850    0.1050 CB         1 I6A      0.399656
     18 C2'        -4.9600   -0.0700   -1.1670 CT         1 I6A     -0.346506
     19 H2'1       -4.8010   -0.9530   -1.7770 HC         1 I6A      0.128875
     20 HHO4       -5.8210   -1.3490    0.8570 HO         1 I6A      0.475061
     21 H2'2       -6.0280    0.1120   -1.0870 HC         1 I6A      0.128875
     22 H2'3       -4.5090    0.7860   -1.6550 HC         1 I6A      0.128875
     23 C9          3.9680    0.0130   -0.6650 CM         1 I6A     -0.408432
     24 1H11        3.0400    1.1270    0.9400 H1         1 I6A      0.053692
     25 2H11        2.7140    1.7340   -0.6550 H1         1 I6A      0.053692
     26 C11         5.0590   -0.4340   -0.0590 CM         1 I6A      0.283086
     27 H9          3.8400   -0.2150   -1.7110 HA         1 I6A      0.186801
     28 C12         5.4070   -0.2240    1.3950 CT         1 I6A     -0.319289
     29 C13         6.0930   -1.2250   -0.8260 CT         1 I6A     -0.319289
     30 1H12        5.5940   -1.1810    1.8750 HC         1 I6A      0.113640
     31 2H12        4.6370    0.2850    1.9560 HC         1 I6A      0.113640
     32 3H12        6.3230    0.3560    1.4810 HC         1 I6A      0.113640
     33 1H13        7.0590   -0.7280   -0.7920 HC         1 I6A      0.113640
     34 2H13        5.8150   -1.3540   -1.8650 HC         1 I6A      0.113640
     35 3H13        6.2280   -2.2100   -0.3850 HC         1 I6A      0.113640
@<TRIPOS>BOND
    1     1     2 1
    2     2     4 1
    3     2    18 1
    4     4     5 1
    5     4    17 1
    6     5     7 1
    7     7     8 1
    8     8     9 1
    9     8    17 1
   10     9    10 1
   11     9    13 1
   12    10    11 1
   13    11    23 1
   14    13    14 1
   15    14    16 1
   16    16    17 1
   17    23    26 1
   18    26    28 1
   19    26    29 1
   20     1    20 1
   21     2     3 1
   22     5     6 1
   23    10    12 1
   24    11    24 1
   25    11    25 1
   26    14    15 1
   27    18    19 1
   28    18    21 1
   29    18    22 1
   30    23    27 1
   31    28    30 1
   32    28    31 1
   33    28    32 1
   34    29    33 1
   35    29    34 1
   36    29    35 1
@<TRIPOS>SUBSTRUCTURE
      1 I6A               1 ****               0 ****  **** 
