@<TRIPOS>MOLECULE
modXNA-fragment:I6U:HEAD01:@N1:HEAD01STRIP:@C1',H1',C2',H2'1,H2'2,H2'3,O4',HHO4
   19    19     1     0     0
SMALL
USER_CHARGES


@<TRIPOS>ATOM
      1 C1'        -0.1340    2.1350   -0.0860 CT         1 I6U      0.366030
      2 C2'         0.4980    2.5090    1.2580 CT         1 I6U     -0.187067
      3 O4'         0.8670    2.1520   -1.0990 OH         1 I6U     -0.844133
      4 O4         -3.0960   -2.6090    0.0840 O          1 I6U     -0.723042
      5 C4         -2.3710   -1.6110    0.0410 C          1 I6U      0.732022
      6 N3         -2.9250   -0.3300   -0.0250 NA         1 I6U     -0.718466
      7 C2         -2.2350    0.8640   -0.0740 C          1 I6U      0.595417
      8 O2         -2.8470    1.9430   -0.1250 O          1 I6U     -0.737269
      9 N1         -0.8340    0.7970   -0.0600 N*         1 I6U      0.042046
     10 C6         -0.1970   -0.4620    0.0020 CM         1 I6U     -0.147112
     11 C5         -0.9010   -1.6260    0.0500 CM         1 I6U     -0.249387
     12 H1'        -0.9170    2.8360   -0.3230 H2         1 I6U      0.070265
     13 H2'1        0.9040    3.5150    1.1770 HC         1 I6U      0.079197
     14 H2'2       -0.2630    2.4980    2.0360 HC         1 I6U      0.079197
     15 H3         -3.9240   -0.2550   -0.0330 H          1 I6U      0.426253
     16 I           1.9200   -0.6820    0.0010 I          1 I6U      0.131450
     17 H5         -0.4240   -2.5830    0.0910 HA         1 I6U      0.160720
     18 H2'3        1.3040    1.8390    1.5340 HC         1 I6U      0.079197
     19 HHO4        0.5220    2.2820   -1.9820 HO         1 I6U      0.494189
@<TRIPOS>BOND
    1     1     2 1
    2     1     3 1
    3     1     9 1
    4     4     5 1
    5     5     6 1
    6     5    11 1
    7     6     7 1
    8     7     8 1
    9     7     9 1
   10     9    10 1
   11    10    11 1
   12    10    16 1
   13     1    12 1
   14     2    13 1
   15     2    14 1
   16     2    18 1
   17     3    19 1
   18     6    15 1
   19    11    17 1
@<TRIPOS>SUBSTRUCTURE
      1 I6U               1 ****               0 ****  **** 
