@<TRIPOS>MOLECULE
modXNA-fragment:IG2:HEAD01:@N9:HEAD01STRIP:@C1',H1',O4',HHO4,C2',H2'1,H2'3,H2'2
   31    33     1     0     0
SMALL
USER_CHARGES


@<TRIPOS>ATOM
      1 O4'         3.0070   -1.9280    0.6320 OH         1 IG2     -0.649837
      2 C1'         3.3810   -0.9400   -0.2890 CT         1 IG2      0.294188
      3 H1'         3.2300   -1.3170   -1.2960 H2         1 IG2      0.026729
      4 N9          2.4630    0.1580   -0.0800 N*         1 IG2     -0.080703
      5 C8          2.7160    1.5200    0.0060 CK         1 IG2      0.128454
      6 H8          3.7140    1.9020    0.0300 H5         1 IG2      0.145535
      7 N7          1.6560    2.2240    0.0580 NB         1 IG2     -0.529805
      8 C5          0.6160    1.3210    0.0100 CB         1 IG2     -0.034398
      9 C6         -0.8120    1.5780    0.0330 C          1 IG2      0.560714
     10 O6         -1.3570    2.6330    0.1050 O          1 IG2     -0.543036
     11 N1         -1.5370    0.3670   -0.0450 N*         1 IG2     -0.247408
     12 C12        -2.9340    0.1700    0.0040 CA         1 IG2      0.003926
     13 C2         -1.0040   -0.8940   -0.1060 CB         1 IG2      0.480846
     14 N2         -1.8760   -1.8230   -0.0950 NB         1 IG2     -0.673496
     15 C15        -3.0990   -1.1650   -0.0250 CC         1 IG2      0.268901
     16 N3          0.3600   -1.0680   -0.1780 NA         1 IG2     -0.650759
     17 C4          1.1110    0.0590   -0.0730 CB         1 IG2      0.216363
     18 C2'         4.8290   -0.5250   -0.1070 CT         1 IG2     -0.287162
     19 H2'1        4.9900   -0.1310    0.8890 HC         1 IG2      0.113803
     20 HHO4        3.4900   -2.7260    0.4610 HO         1 IG2      0.437642
     21 H2'2        5.4610   -1.3970   -0.2360 HC         1 IG2      0.113803
     22 H2'3        5.1300    0.2100   -0.8440 HC         1 IG2      0.113803
     23 C23        -3.9230    1.2920    0.0660 CT         1 IG2     -0.314243
     24 C24        -4.3550   -1.9770    0.0010 CT         1 IG2     -0.322979
     25 1H23       -4.9240    0.8800    0.0720 HC         1 IG2      0.137645
     26 2H23       -3.8300    1.9530   -0.7860 HC         1 IG2      0.137645
     27 3H23       -3.7930    1.8940    0.9560 HC         1 IG2      0.137645
     28 1H24       -5.2390   -1.3550    0.0550 HC         1 IG2      0.122704
     29 2H24       -4.3540   -2.6440    0.8570 HC         1 IG2      0.122704
     30 3H24       -4.4250   -2.5920   -0.8900 HC         1 IG2      0.122704
     31 H3          0.7300   -1.9530    0.0920 H          1 IG2      0.412115
@<TRIPOS>BOND
    1     1     2 1
    2     2     4 1
    3     2    18 1
    4     4     5 1
    5     4    17 1
    6     5     7 1
    7     7     8 1
    8     8     9 1
    9     8    17 1
   10     9    10 1
   11     9    11 1
   12    11    12 1
   13    11    13 1
   14    12    15 1
   15    12    23 1
   16    13    14 1
   17    13    16 1
   18    14    15 1
   19    15    24 1
   20    16    17 1
   21     1    20 1
   22     2     3 1
   23     5     6 1
   24    16    31 1
   25    18    19 1
   26    18    21 1
   27    18    22 1
   28    23    25 1
   29    23    26 1
   30    23    27 1
   31    24    28 1
   32    24    29 1
   33    24    30 1
@<TRIPOS>SUBSTRUCTURE
      1 IG2               1 ****               0 ****  **** 
