@<TRIPOS>MOLECULE
modXNA-fragment:IGA:HEAD01:@N9:HEAD01STRIP:@C1',H1',O4',HHO4,C2',H2'1,H2'3,H2'2
   23    24     1     0     0
SMALL
USER_CHARGES


@<TRIPOS>ATOM
      1 O4'        -3.4750   -0.3060    0.8040 OH         1 IGA     -0.756647
      2 C1'        -2.5070    0.5120    0.2160 CT         1 IGA      0.324828
      3 H1'        -2.2480    1.3360    0.8680 H2         1 IGA      0.051540
      4 N9         -1.3190   -0.3110    0.1100 N*         1 IGA     -0.063121
      5 C8         -1.2440   -1.6910   -0.0010 CK         1 IGA      0.162296
      6 H8         -2.1330   -2.2840    0.0080 H5         1 IGA      0.170867
      7 N7         -0.0560   -2.1410   -0.0880 NB         1 IGA     -0.604948
      8 C5          0.7400   -1.0030   -0.0390 CB         1 IGA      0.007269
      9 C6          2.0950   -0.8210   -0.0760 CM         1 IGA      0.479511
     10 N6          3.0020   -1.8050   -0.2270 N2         1 IGA     -0.905068
     11 H61         3.9460   -1.6540    0.0450 H          1 IGA      0.423656
     12 H62         2.6630   -2.7380   -0.1480 H          1 IGA      0.423656
     13 N1          2.5050    0.4600    0.0170 NA         1 IGA     -0.779962
     14 C2          1.6650    1.6110    0.1310 C          1 IGA      0.789847
     15 O15         2.2250    2.6690    0.1840 O          1 IGA     -0.687025
     16 N3          0.3290    1.4030    0.1660 NC         1 IGA     -0.814508
     17 C4         -0.0430    0.1540    0.0870 CB         1 IGA      0.293880
     18 C2'        -2.9490    1.0410   -1.1390 CT         1 IGA     -0.311882
     19 H2'1       -3.1890    0.2170   -1.8030 HC         1 IGA      0.115701
     20 HHO4       -4.2950    0.1640    0.8610 HO         1 IGA      0.480603
     21 H2'2       -3.8300    1.6670   -1.0290 HC         1 IGA      0.115701
     22 H2'3       -2.1630    1.6410   -1.5790 HC         1 IGA      0.115701
     23 H1          3.4740    0.6880   -0.0440 H          1 IGA      0.416817
@<TRIPOS>BOND
    1     1     2 1
    2     2     4 1
    3     2    18 1
    4     4     5 1
    5     4    17 1
    6     5     7 1
    7     7     8 1
    8     8     9 1
    9     8    17 1
   10     9    10 1
   11     9    13 1
   12    13    14 1
   13    14    15 1
   14    14    16 1
   15    16    17 1
   16     1    20 1
   17     2     3 1
   18     5     6 1
   19    10    11 1
   20    10    12 1
   21    13    23 1
   22    18    19 1
   23    18    21 1
   24    18    22 1
@<TRIPOS>SUBSTRUCTURE
      1 IGA               1 ****               0 ****  **** 
