@<TRIPOS>MOLECULE
modXNA-fragment:IMG:HEAD01:@N9:HEAD01STRIP:@C1',H1',O4',HHO4,C2',H2'1,H2'3,H2'2
   31    33     1     0     0
SMALL
USER_CHARGES


@<TRIPOS>ATOM
      1 O4'         3.3020   -1.3910    1.1080 OH         1 IMG     -0.621958
      2 C1'         3.0890   -0.8990   -0.1840 CT         1 IMG      0.219239
      3 H1'         2.6250   -1.6560   -0.7990 H2         1 IMG      0.082751
      4 N9          2.1480    0.1940   -0.0780 N*         1 IMG      0.039716
      5 C8          2.4750    1.5380    0.0160 CK         1 IMG      0.167130
      6 H8          3.4920    1.8620    0.0150 H5         1 IMG      0.134067
      7 N7          1.4630    2.3020    0.0900 NB         1 IMG     -0.564480
      8 C5          0.3750    1.4610    0.0690 CB         1 IMG      0.088268
      9 C6         -1.0210    1.8370    0.0900 C          1 IMG      0.455072
     10 O6         -1.5030    2.9240    0.1590 O          1 IMG     -0.531362
     11 N1         -1.8250    0.6900    0.0020 N*         1 IMG     -0.058719
     12 C12        -3.2180    0.6320   -0.0140 CA         1 IMG     -0.378526
     13 C2         -1.4070   -0.6060   -0.0570 CB         1 IMG      0.272297
     14 N2         -2.3770   -1.4460   -0.1080 NB         1 IMG     -0.625349
     15 N3         -0.0640   -0.9160   -0.0440 N*         1 IMG     -0.032177
     16 C4          0.7820    0.1590   -0.0140 CB         1 IMG     -0.079263
     17 C2'         4.3960   -0.4810   -0.8440 CT         1 IMG     -0.385902
     18 H2'1        4.9570    0.1960   -0.2130 HC         1 IMG      0.147814
     19 HHO4        3.9530   -2.0810    1.0890 HO         1 IMG      0.424972
     20 H2'2        5.0040   -1.3650   -1.0030 HC         1 IMG      0.147814
     21 H2'3        4.2190   -0.0180   -1.8070 HC         1 IMG      0.147814
     22 C24         0.3090   -2.3220    0.0780 CT         1 IMG     -0.051595
     23 1H24       -0.5500   -2.8540    0.4480 H1         1 IMG      0.076266
     24 2H24        1.1240   -2.4240    0.7770 H1         1 IMG      0.076266
     25 3H24        0.5810   -2.7400   -0.8840 H1         1 IMG      0.076266
     26 C26        -3.5290   -0.6710   -0.0800 CC         1 IMG      0.404173
     27 H12        -3.8020    1.5240    0.0220 H4         1 IMG      0.255040
     28 C28        -4.8750   -1.3170   -0.1270 CT         1 IMG     -0.406427
     29 1H28       -4.9860   -1.9020   -1.0340 HC         1 IMG      0.147730
     30 2H28       -5.6630   -0.5740   -0.0980 HC         1 IMG      0.147730
     31 3H28       -5.0050   -1.9900    0.7140 HC         1 IMG      0.147730
@<TRIPOS>BOND
    1     1     2 1
    2     2     4 1
    3     2    17 1
    4     4     5 1
    5     4    16 1
    6     5     7 1
    7     7     8 1
    8     8     9 1
    9     8    16 1
   10     9    10 1
   11     9    11 1
   12    11    12 1
   13    11    13 1
   14    12    26 1
   15    13    14 1
   16    13    15 1
   17    14    26 1
   18    15    16 1
   19    15    22 1
   20    26    28 1
   21     1    19 1
   22     2     3 1
   23     5     6 1
   24    12    27 1
   25    17    18 1
   26    17    20 1
   27    17    21 1
   28    22    23 1
   29    22    24 1
   30    22    25 1
   31    28    29 1
   32    28    30 1
   33    28    31 1
@<TRIPOS>SUBSTRUCTURE
      1 IMG               1 ****               0 ****  **** 
