@<TRIPOS>MOLECULE
modXNA-fragment:INU:HEAD01:@N1:HEAD01STRIP:@C1',H1',O4',HHO4,C2',H2'1,H2'3,H2'2
   37    37     1     0     0
SMALL
USER_CHARGES


@<TRIPOS>ATOM
      1 O4'        -2.6990    2.5320    0.0310 OH         1 INU     -0.739475
      2 C1'        -3.3930    1.3590   -0.2770 CT         1 INU      0.291753
      3 H1'        -3.7270    1.3690   -1.3020 H2         1 INU      0.055589
      4 N1         -2.4140    0.2770   -0.1830 N*         1 INU     -0.088266
      5 C6         -1.4380    0.2880    0.7950 CM         1 INU     -0.098247
      6 H6         -1.4550    1.1580    1.4190 H4         1 INU      0.238221
      7 C5         -0.5340   -0.6760    0.9600 CM         1 INU     -0.201918
      8 C8          0.5270   -0.6610    2.0440 CT         1 INU     -0.125229
      9 C4         -0.5750   -1.8160    0.0430 C          1 INU      0.694658
     10 O4          0.1740   -2.7500    0.0640 O          1 INU     -0.624354
     11 N3         -1.5870   -1.7520   -0.9010 NA         1 INU     -0.776626
     12 H3         -1.6580   -2.5200   -1.5350 H          1 INU      0.402344
     13 C2         -2.5310   -0.7730   -1.0590 C          1 INU      0.585097
     14 O2         -3.3870   -0.8420   -1.8950 O          1 INU     -0.617348
     15 C2'        -4.5710    1.1330    0.6580 CT         1 INU     -0.303501
     16 H2'1       -4.2370    1.0890    1.6890 HC         1 INU      0.113324
     17 HHO4       -3.2830    3.2740   -0.0450 HO         1 INU      0.478690
     18 H2'2       -5.2860    1.9460    0.5640 HC         1 INU      0.113324
     19 H2'3       -5.0770    0.2100    0.4060 HC         1 INU      0.113324
     20 H81         0.3450    0.1890    2.6940 H1         1 INU      0.148882
     21 N9          1.9030   -0.6120    1.5990 NT         1 INU     -0.743553
     22 H82         0.4160   -1.5530    2.6490 H1         1 INU      0.148882
     23 C10         2.2810    0.5680    0.8400 CT         1 INU      0.397035
     24 H9          2.1240   -1.4430    1.0880 H          1 INU      0.395192
     25 C11         3.7650    0.5520    0.5880 CM         1 INU     -0.505991
     26 1H10        2.0400    1.4370    1.4510 H1         1 INU     -0.009319
     27 2H10        1.7200    0.6780   -0.0840 H1         1 INU     -0.009319
     28 C13         4.4130    0.6550   -0.5630 CM         1 INU      0.305199
     29 H11         4.3450    0.4310    1.4890 HA         1 INU      0.213917
     30 C14         3.7770    0.8170   -1.9220 CT         1 INU     -0.323559
     31 C15         5.9230    0.6190   -0.6000 CT         1 INU     -0.323559
     32 1H14        4.1200    0.0330   -2.5930 HC         1 INU      0.111854
     33 2H14        4.0750    1.7640   -2.3680 HC         1 INU      0.111854
     34 3H14        2.6970    0.7870   -1.9010 HC         1 INU      0.111854
     35 1H15        6.2750   -0.2050   -1.2160 HC         1 INU      0.111854
     36 2H15        6.3490    0.5060    0.3900 HC         1 INU      0.111854
     37 3H15        6.3210    1.5320   -1.0380 HC         1 INU      0.111854
@<TRIPOS>BOND
    1     1     2 1
    2     2     4 1
    3     2    15 1
    4     4     5 1
    5     4    13 1
    6     5     7 1
    7     7     8 1
    8     7     9 1
    9     8    21 1
   10     9    10 1
   11     9    11 1
   12    11    13 1
   13    13    14 1
   14    21    23 1
   15    23    25 1
   16    25    28 1
   17    28    30 1
   18    28    31 1
   19     1    17 1
   20     2     3 1
   21     5     6 1
   22     8    20 1
   23     8    22 1
   24    11    12 1
   25    15    16 1
   26    15    18 1
   27    15    19 1
   28    21    24 1
   29    23    26 1
   30    23    27 1
   31    25    29 1
   32    30    32 1
   33    30    33 1
   34    30    34 1
   35    31    35 1
   36    31    36 1
   37    31    37 1
@<TRIPOS>SUBSTRUCTURE
      1 INU               1 ****               0 ****  **** 
