@<TRIPOS>MOLECULE
modXNA-fragment:IOA:HEAD01:@N9:HEAD01STRIP:@C1',H1',O4',HHO4,C2',H2'1,H2'3,H2'2
   36    37     1     0     0
SMALL
USER_CHARGES


@<TRIPOS>ATOM
      1 O4'        -5.1440   -1.5720    0.7850 OH         1 IOA     -0.734002
      2 C1'        -4.6800   -0.3590    0.2740 CT         1 IOA      0.317017
      3 H1'        -4.8150    0.4400    0.9910 H2         1 IOA      0.063521
      4 N9         -3.2500   -0.5250    0.1130 N*         1 IOA     -0.199770
      5 C8         -2.5550   -1.6790   -0.1550 CK         1 IOA      0.247340
      6 H8         -3.0610   -2.6170   -0.2290 H5         1 IOA      0.142820
      7 N7         -1.2900   -1.5060   -0.2750 NB         1 IOA     -0.649400
      8 C5         -1.1140   -0.1510   -0.0820 CB         1 IOA     -0.089167
      9 C6          0.0210    0.6760   -0.0780 CA         1 IOA      0.527425
     10 N6          1.2480    0.1860   -0.3190 N2         1 IOA     -0.476178
     11 C11         2.4700    0.9590   -0.1830 CT         1 IOA     -0.006910
     12 H6          1.3220   -0.8060   -0.3660 H          1 IOA      0.334951
     13 N1         -0.1450    1.9720    0.1590 NC         1 IOA     -0.836769
     14 C2         -1.3750    2.4300    0.3680 CQ         1 IOA      0.519282
     15 H2         -1.4430    3.4880    0.5480 H5         1 IOA      0.037740
     16 N3         -2.5060    1.7660    0.3860 NC         1 IOA     -0.830476
     17 C4         -2.3160    0.4680    0.1600 CB         1 IOA      0.435163
     18 C2'        -5.3550    0.0040   -1.0410 CT         1 IOA     -0.339509
     19 H2'1       -5.2070   -0.7860   -1.7690 HC         1 IOA      0.126819
     20 HHO4       -6.0900   -1.5550    0.8340 HO         1 IOA      0.473831
     21 H2'2       -6.4220    0.1440   -0.8900 HC         1 IOA      0.126819
     22 H2'3       -4.9470    0.9280   -1.4290 HC         1 IOA      0.126819
     23 C9          3.5840    0.2530   -0.9090 CM         1 IOA     -0.235361
     24 1H11        2.6960    1.1330    0.8620 H1         1 IOA      0.105196
     25 2H11        2.2990    1.9280   -0.6310 H1         1 IOA      0.105196
     26 C11         4.7620   -0.1450   -0.4460 CM         1 IOA     -0.017604
     27 H9          3.3650    0.0740   -1.9500 HA         1 IOA      0.166475
     28 C12         5.2390    0.0340    0.9790 CT         1 IOA      0.273046
     29 C13         5.7630   -0.8240   -1.3500 CT         1 IOA     -0.152603
     30 O12         5.6010   -1.1890    1.5710 OH         1 IOA     -0.711842
     31 1H12        4.5100    0.5490    1.5920 H1         1 IOA      0.007672
     32 2H12        6.1410    0.6340    0.9800 H1         1 IOA      0.007672
     33 1H13        6.6770   -0.2370   -1.4140 HC         1 IOA      0.075980
     34 2H13        5.3730   -0.9520   -2.3530 HC         1 IOA      0.075980
     35 3H13        6.0400   -1.7960   -0.9580 HC         1 IOA      0.075980
     36 2HO1        4.8300   -1.7320    1.6580 HO         1 IOA      0.440072
@<TRIPOS>BOND
    1     1     2 1
    2     2     4 1
    3     2    18 1
    4     4     5 1
    5     4    17 1
    6     5     7 1
    7     7     8 1
    8     8     9 1
    9     8    17 1
   10     9    10 1
   11     9    13 1
   12    10    11 1
   13    11    23 1
   14    13    14 1
   15    14    16 1
   16    16    17 1
   17    23    26 1
   18    26    28 1
   19    26    29 1
   20    28    30 1
   21     1    20 1
   22     2     3 1
   23     5     6 1
   24    10    12 1
   25    11    24 1
   26    11    25 1
   27    14    15 1
   28    18    19 1
   29    18    21 1
   30    18    22 1
   31    23    27 1
   32    28    31 1
   33    28    32 1
   34    29    33 1
   35    29    34 1
   36    29    35 1
   37    30    36 1
@<TRIPOS>SUBSTRUCTURE
      1 IOA               1 ****               0 ****  **** 
