@<TRIPOS>MOLECULE
modXNA-fragment:IPG:HEAD01:@N9:HEAD01STRIP:@C1',H1',O4',HHO4,C2',H2'1,H2'3,H2'2
   56    58     1     0     0
SMALL
USER_CHARGES


@<TRIPOS>ATOM
      1 O4'        -5.8950   -0.6310    1.8190 OH         1 IPG     -0.614752
      2 C1'        -5.8900   -0.5850    0.4220 CT         1 IPG      0.245419
      3 H1'        -6.0900    0.4200    0.0810 H2         1 IPG      0.072636
      4 N9         -4.5500   -0.9190   -0.0120 N*         1 IPG      0.015977
      5 C8         -4.1120   -2.1770   -0.4000 CK         1 IPG      0.141275
      6 H8         -4.7760   -3.0130   -0.4140 H5         1 IPG      0.146948
      7 N7         -2.8860   -2.2090   -0.7290 NB         1 IPG     -0.555978
      8 C5         -2.4330   -0.9230   -0.5440 CB         1 IPG      0.146048
      9 C6         -1.1080   -0.4270   -0.8070 C          1 IPG      0.321341
     10 O6         -0.1740   -1.0620   -1.2140 O          1 IPG     -0.440468
     11 N1         -1.0180    0.9410   -0.5380 N*         1 IPG     -0.054933
     12 C13        -2.0450    1.7290   -0.0810 CB         1 IPG      0.262497
     13 N2         -1.7160    2.9540    0.0620 NB         1 IPG     -0.630680
     14 N3         -3.2910    1.2010    0.1950 N*         1 IPG     -0.013079
     15 C4         -3.4420   -0.1230   -0.0860 CB         1 IPG     -0.070052
     16 C2'        -6.9420   -1.5110   -0.1730 CT         1 IPG     -0.404265
     17 H2'1       -6.8750   -1.5410   -1.2540 HC         1 IPG      0.154196
     18 HHO4       -6.7680   -0.4590    2.1480 HO         1 IPG      0.421224
     19 H2'2       -7.9250   -1.1350    0.0910 HC         1 IPG      0.154196
     20 H2'3       -6.8540   -2.5140    0.2250 HC         1 IPG      0.154196
     21 8C18       -4.2680    2.0710    0.8440 CT         1 IPG     -0.153606
     22 C23        -0.3810    3.0250   -0.3120 CC         1 IPG      0.386672
     23 C24         0.0820    1.8210   -0.6890 CA         1 IPG     -0.232049
     24 1C24        0.3280    4.3390   -0.2520 CT         1 IPG     -0.516190
     25 3C24        1.4420    1.3850   -1.1460 CT         1 IPG     -0.020112
     26 8H18       -3.7280    2.8900    1.2860 H1         1 IPG      0.101003
     27 8H18       -4.7860    1.5230    1.6140 H1         1 IPG      0.101003
     28 8H18       -4.9710    2.4730    0.1240 H1         1 IPG      0.101003
     29 1H24        1.3640    4.2510   -0.5440 HC         1 IPG      0.154816
     30 1H24        0.2970    4.7290    0.7600 HC         1 IPG      0.154816
     31 1H24       -0.1640    5.0610   -0.8960 HC         1 IPG      0.154816
     32 3H24        1.3400    0.5970   -1.8740 HC         1 IPG      0.062621
     33 3H24        1.9210    2.2160   -1.6440 HC         1 IPG      0.062621
     34 C15         2.3690    0.9500    0.0070 CT         1 IPG      0.215694
     35 C15         3.4270   -0.0680   -0.5120 CT         1 IPG     -0.285336
     36 H15         1.8090    0.4530    0.7840 H1         1 IPG      0.145690
     37 O17         2.8620    2.0780    0.6700 OS         1 IPG     -0.298375
     38 C16         4.7810   -0.1140    0.1990 C          1 IPG      0.725001
     39 H15         3.6960    0.2070   -1.5280 H1         1 IPG      0.170438
     40 N18         2.8350   -1.3900   -0.5950 N          1 IPG     -0.695903
     41 O19         3.6920    2.8080   -0.1770 OH         1 IPG     -0.464467
     42 O17         5.3630   -1.2850    0.0990 OS         1 IPG     -0.354401
     43 O18         5.3230    0.8360    0.6780 O          1 IPG     -0.620181
     44 H18         2.1790   -1.5190   -1.3320 H          1 IPG      0.414405
     45 C21         2.5900   -2.0630    0.5720 C          1 IPG      0.757470
     46 9HO1        4.5460    2.5220    0.1380 HO         1 IPG      0.466530
     47 C19         6.6190   -1.4350    0.7390 CT         1 IPG     -0.132939
     48 O20         1.9700   -3.2260    0.4770 OS         1 IPG     -0.535691
     49 O21         2.9430   -1.6520    1.6360 O          1 IPG     -0.637063
     50 1H19        6.9110   -2.4590    0.5660 H1         1 IPG      0.126188
     51 2H19        6.5210   -1.2460    1.7980 H1         1 IPG      0.126188
     52 3H19        7.3450   -0.7580    0.3140 H1         1 IPG      0.126188
     53 C22         1.6530   -3.8350   -0.7600 CT         1 IPG      0.355050
     54 1H22        1.3250   -4.8320   -0.5120 H1         1 IPG     -0.054747
     55 2H22        2.5270   -3.8920   -1.3960 H1         1 IPG     -0.054747
     56 3H22        0.8500   -3.3080   -1.2540 H1         1 IPG     -0.054747
@<TRIPOS>BOND
    1     1     2 1
    2     2     4 1
    3     2    16 1
    4     4     5 1
    5     4    15 1
    6     5     7 1
    7     7     8 1
    8     8     9 1
    9     8    15 1
   10     9    10 1
   11     9    11 1
   12    11    12 1
   13    11    23 1
   14    12    13 1
   15    12    14 1
   16    13    22 1
   17    14    15 1
   18    14    21 1
   19    22    23 1
   20    22    24 1
   21    23    25 1
   22    25    34 1
   23    34    35 1
   24    34    37 1
   25    35    38 1
   26    35    40 1
   27    37    41 1
   28    38    42 1
   29    38    43 1
   30    40    45 1
   31    42    47 1
   32    45    48 1
   33    45    49 1
   34    48    53 1
   35     1    18 1
   36     2     3 1
   37     5     6 1
   38    16    17 1
   39    16    19 1
   40    16    20 1
   41    21    26 1
   42    21    27 1
   43    21    28 1
   44    24    29 1
   45    24    30 1
   46    24    31 1
   47    25    32 1
   48    25    33 1
   49    34    36 1
   50    35    39 1
   51    40    44 1
   52    41    46 1
   53    47    50 1
   54    47    51 1
   55    47    52 1
   56    53    54 1
   57    53    55 1
   58    53    56 1
@<TRIPOS>SUBSTRUCTURE
      1 IPG               1 ****               0 ****  **** 
