@<TRIPOS>MOLECULE
modXNA-fragment:ISG:HEAD01:@N9:HEAD01STRIP:@C1',H1',O4',HHO4,C2',H2'1,H2'2,H2'3
   23    24     1     0     0
SMALL
USER_CHARGES


@<TRIPOS>ATOM
      1 C1'         2.5070    0.5130   -0.2160 CT         1 ISG      0.420059
      2 C2'         2.9510    1.0380    1.1410 CT         1 ISG     -0.416049
      3 O4'         3.4740   -0.3040   -0.8060 OH         1 ISG     -0.754764
      4 O4         -2.2260    2.6690   -0.1840 O          1 ISG     -0.687016
      5 N5         -3.0010   -1.8050    0.2270 N2         1 ISG     -0.905946
      6 C6         -2.0950   -0.8210    0.0760 CM         1 ISG      0.633687
      7 C5         -0.7400   -1.0020    0.0390 CB         1 ISG      0.007690
      8 N7          0.0560   -2.1410    0.0870 NB         1 ISG     -0.602968
      9 C8          1.2440   -1.6910    0.0010 CK         1 ISG      0.208078
     10 N9          1.3190   -0.3110   -0.1100 N*         1 ISG     -0.056831
     11 C4          0.0430    0.1550   -0.0870 CB         1 ISG      0.386421
     12 N3         -0.3290    1.4030   -0.1660 NC         1 ISG     -0.814608
     13 C2         -1.6660    1.6110   -0.1310 C          1 ISG      1.040037
     14 N1         -2.5060    0.4600   -0.0170 NA         1 ISG     -0.782979
     15 H1'         2.2470    1.3390   -0.8650 H2         1 ISG      0.053967
     16 H2'1        3.8320    1.6650    1.0310 HC         1 ISG      0.117631
     17 H2'2        2.1650    1.6370    1.5840 HC         1 ISG      0.117631
     18 H8          2.1330   -2.2830   -0.0080 H5         1 ISG      0.172336
     19 H1         -3.4740    0.6870    0.0440 H          1 ISG      0.417658
     20 H2'3        3.1920    0.2130    1.8020 HC         1 ISG      0.117631
     21 HHO4        4.2950    0.1650   -0.8610 HO         1 ISG      0.480732
     22 H51        -2.6620   -2.7390    0.1470 H          1 ISG      0.423801
     23 H52        -3.9460   -1.6550   -0.0460 H          1 ISG      0.423801
@<TRIPOS>BOND
    1     1     2 1
    2     1     3 1
    3     1    10 1
    4     4    13 1
    5     5     6 1
    6     6     7 1
    7     6    14 1
    8     7     8 1
    9     7    11 1
   10     8     9 1
   11     9    10 1
   12    10    11 1
   13    11    12 1
   14    12    13 1
   15    13    14 1
   16     1    15 1
   17     2    16 1
   18     2    17 1
   19     2    20 1
   20     3    21 1
   21     5    22 1
   22     5    23 1
   23     9    18 1
   24    14    19 1
@<TRIPOS>SUBSTRUCTURE
      1 ISG               1 ****               0 ****  **** 
