@<TRIPOS>MOLECULE
modXNA-fragment:ISU:HEAD01:@N1:HEAD01STRIP:@C1',H1',O4',HHO4,C2',H2'1,H2'3,H2'2
   37    37     1     0     0
SMALL
USER_CHARGES


@<TRIPOS>ATOM
      1 O4'         2.4550   -2.3990   -1.2470 OH         1 ISU     -0.686724
      2 C1'         3.1650   -1.3230   -0.7400 CT         1 ISU      0.374811
      3 H1'         3.6840   -0.7920   -1.5170 H2         1 ISU     -0.019976
      4 N1          2.2130   -0.3460   -0.1450 N*         1 ISU      0.266358
      5 C6          1.1790   -0.8560    0.6260 CM         1 ISU     -0.273836
      6 H6          1.1540   -1.9260    0.6610 H4         1 ISU      0.226799
      7 C5          0.2750   -0.1140    1.2610 CM         1 ISU     -0.017661
      8 C8         -0.8450   -0.6820    2.1110 CT         1 ISU     -0.273343
      9 C4          0.3880    1.3360    1.1270 C          1 ISU      0.536316
     10 O4         -0.3410    2.1440    1.6230 O          1 ISU     -0.586680
     11 N3          1.4570    1.7490    0.3430 NA         1 ISU     -0.225942
     12 H3          1.5670    2.7370    0.2440 H          1 ISU      0.265512
     13 C2          2.3820    0.9870   -0.2870 C          1 ISU     -0.065011
     14 S2          3.6130    1.7280   -1.1540 S          1 ISU     -0.388230
     15 C2'         4.1410   -1.8360    0.2990 CT         1 ISU     -0.219765
     16 H2'1        3.6220   -2.3600    1.0930 HC         1 ISU      0.089314
     17 HHO4        2.0400   -2.1590   -2.0660 HO         1 ISU      0.421254
     18 H2'2        4.8300   -2.5270   -0.1710 HC         1 ISU      0.089314
     19 H2'3        4.7020   -1.0120    0.7230 HC         1 ISU      0.089314
     20 H81        -0.7180   -1.7580    2.1760 H1         1 ISU      0.209997
     21 N9         -2.1920   -0.4030    1.6670 NT         1 ISU     -0.730984
     22 H82        -0.7460   -0.2890    3.1160 H1         1 ISU      0.209997
     23 C10        -2.5540   -0.9270    0.3620 CT         1 ISU      0.445411
     24 H9         -2.3720    0.5800    1.7160 H          1 ISU      0.395676
     25 C11        -4.0220   -0.7060    0.1170 CM         1 ISU     -0.515007
     26 1H10       -2.3600   -1.9990    0.3790 H1         1 ISU     -0.029245
     27 2H10       -1.9490   -0.5190   -0.4450 H1         1 ISU     -0.029245
     28 C13        -4.6100   -0.0890   -0.8970 CM         1 ISU      0.320085
     29 H11        -4.6460   -1.1090    0.8980 HA         1 ISU      0.216246
     30 C14        -3.9060    0.5490   -2.0710 CT         1 ISU     -0.350622
     31 C15        -6.1160    0.0250   -0.9570 CT         1 ISU     -0.350622
     32 1H14       -4.2080    1.5890   -2.1690 HC         1 ISU      0.121569
     33 2H14       -4.1900    0.0520   -2.9960 HC         1 ISU      0.121569
     34 3H14       -2.8290    0.5210   -1.9970 HC         1 ISU      0.121569
     35 1H15       -6.4230    1.0680   -0.9840 HC         1 ISU      0.121569
     36 2H15       -6.5900   -0.4460   -0.1050 HC         1 ISU      0.121569
     37 3H15       -6.5030   -0.4410   -1.8610 HC         1 ISU      0.121569
@<TRIPOS>BOND
    1     1     2 1
    2     2     4 1
    3     2    15 1
    4     4     5 1
    5     4    13 1
    6     5     7 1
    7     7     8 1
    8     7     9 1
    9     8    21 1
   10     9    10 1
   11     9    11 1
   12    11    13 1
   13    13    14 1
   14    21    23 1
   15    23    25 1
   16    25    28 1
   17    28    30 1
   18    28    31 1
   19     1    17 1
   20     2     3 1
   21     5     6 1
   22     8    20 1
   23     8    22 1
   24    11    12 1
   25    15    16 1
   26    15    18 1
   27    15    19 1
   28    21    24 1
   29    23    26 1
   30    23    27 1
   31    25    29 1
   32    30    32 1
   33    30    33 1
   34    30    34 1
   35    31    35 1
   36    31    36 1
   37    31    37 1
@<TRIPOS>SUBSTRUCTURE
      1 ISU               1 ****               0 ****  **** 
