@<TRIPOS>MOLECULE
modXNA-fragment:K2C:HEAD01:@N1:HEAD01STRIP:@C1',H1',O4',HHO4,C2',H2'1,H2'3,H2'2
   41    41     1     0     0
SMALL
USER_CHARGES


@<TRIPOS>ATOM
      1 O4'        -4.4820   -2.6420   -0.6600 OH         1 K2C     -0.748643
      2 C1'        -3.3500   -2.0720   -0.0610 CT         1 K2C      0.400947
      3 H1'        -2.4720   -2.2450   -0.6610 H2         1 K2C      0.013952
      4 N1         -3.5680   -0.6270   -0.0690 N*         1 K2C     -0.415932
      5 C6         -4.8150   -0.1160   -0.0100 CM         1 K2C      0.195878
      6 H6         -5.6080   -0.8320    0.0240 H4         1 K2C      0.183039
      7 C5         -5.0430    1.2080   -0.0100 CM         1 K2C     -0.597640
      8 H5         -6.0350    1.6100    0.0410 HA         1 K2C      0.246172
      9 C4         -3.8780    2.0430   -0.0960 CA         1 K2C      0.780949
     10 N4         -4.0380    3.3870   -0.1070 N2         1 K2C     -1.018884
     11 H41        -3.2340    3.9280   -0.3330 H          1 K2C      0.422096
     12 H42        -4.9220    3.7740   -0.3450 H          1 K2C      0.422096
     13 N3         -2.6740    1.5770   -0.1430 NC         1 K2C     -0.928870
     14 C2         -2.4470    0.2280   -0.0890 CQ         1 K2C      0.791879
     15 N2         -1.3060   -0.3140   -0.0580 N2         1 K2C     -0.852205
     16 C2'        -3.1390   -2.6040    1.3480 CT         1 K2C     -0.378855
     17 H2'1       -4.0210   -2.4240    1.9540 HC         1 K2C      0.130846
     18 HHO4       -4.3620   -3.5790   -0.7170 HO         1 K2C      0.469163
     19 H2'2       -2.9550   -3.6750    1.3210 HC         1 K2C      0.130846
     20 H2'3       -2.2830   -2.1240    1.8020 HC         1 K2C      0.130846
     21 C10        -0.1420    0.5420   -0.1020 CT         1 K2C      0.260754
     22 C10         1.1220   -0.3130   -0.0640 CT         1 K2C     -0.022379
     23 1H10       -0.1380    1.2390    0.7350 H1         1 K2C     -0.030815
     24 2H10       -0.1400    1.1550   -1.0020 H1         1 K2C     -0.030815
     25 C12         2.4060    0.5170   -0.1060 CT         1 K2C      0.016393
     26 1H10        1.1030   -1.0050   -0.9020 HC         1 K2C      0.025678
     27 2H10        1.1060   -0.9210    0.8370 HC         1 K2C      0.025678
     28 C14         3.6680   -0.3460   -0.0650 CT         1 K2C     -0.123008
     29 1H12        2.4040    1.2170    0.7280 HC         1 K2C     -0.017587
     30 2H12        2.4150    1.1220   -1.0130 HC         1 K2C     -0.017587
     31 C16         4.9640    0.4660   -0.1390 CT         1 K2C      0.279567
     32 1H14        3.6620   -1.0500   -0.8870 HC         1 K2C      0.035654
     33 2H14        3.6790   -0.9400    0.8480 HC         1 K2C      0.035654
     34 C18         6.1850   -0.4480   -0.3120 C          1 K2C      0.526178
     35 N19         5.1980    1.3830    0.9750 NT         1 K2C     -1.075700
     36 H16         4.9470    1.0690   -1.0440 H1         1 K2C      0.018577
     37 O19         7.2940   -0.0090    0.2550 OH         1 K2C     -0.592277
     38 O21         6.1510   -1.4520   -0.9410 O          1 K2C     -0.573617
     39 1H19        4.8810    0.9870    1.8400 H          1 K2C      0.401629
     40 2H19        4.7090    2.2460    0.8490 H          1 K2C      0.401629
     41 9HO1        7.0890    0.7950    0.7310 HO         1 K2C      0.405873
@<TRIPOS>BOND
    1     1     2 1
    2     2     4 1
    3     2    16 1
    4     4     5 1
    5     4    14 1
    6     5     7 1
    7     7     9 1
    8     9    10 1
    9     9    13 1
   10    13    14 1
   11    14    15 1
   12    15    21 1
   13    21    22 1
   14    22    25 1
   15    25    28 1
   16    28    31 1
   17    31    34 1
   18    31    35 1
   19    34    37 1
   20    34    38 1
   21     1    18 1
   22     2     3 1
   23     5     6 1
   24     7     8 1
   25    10    11 1
   26    10    12 1
   27    16    17 1
   28    16    19 1
   29    16    20 1
   30    21    23 1
   31    21    24 1
   32    22    26 1
   33    22    27 1
   34    25    29 1
   35    25    30 1
   36    28    32 1
   37    28    33 1
   38    31    36 1
   39    35    39 1
   40    35    40 1
   41    37    41 1
@<TRIPOS>SUBSTRUCTURE
      1 K2C               1 ****               0 ****  **** 
