@<TRIPOS>MOLECULE
modXNA-fragment:M1A:HEAD01:@N9:HEAD01STRIP:@C1',H1',O4',HHO4,C2',H2'1,H2'3,H2'2
   26    27     1     0     0
SMALL
USER_CHARGES


@<TRIPOS>ATOM
      1 O4'        -3.5860    0.0890   -0.9890 OH         1 M1A     -0.694110
      2 C1'        -2.6930   -0.5860   -0.1630 CT         1 M1A      0.500029
      3 H1'        -2.3710   -1.5270   -0.5980 H2         1 M1A     -0.007277
      4 N9         -1.5050    0.2320   -0.1050 N*         1 M1A     -0.058508
      5 C8         -1.3880    1.6070    0.0050 CK         1 M1A      0.033658
      6 H8         -2.2470    2.2420    0.0260 H5         1 M1A      0.161421
      7 N7         -0.1540    1.9860    0.1090 NB         1 M1A     -0.568384
      8 C5          0.5810    0.8370    0.0510 CB         1 M1A      0.113204
      9 C6          1.9940    0.6340    0.0810 CM         1 M1A      0.286708
     10 N6          2.8570    1.7100    0.1880 N2         1 M1A     -1.019819
     11 H61         3.7620    1.6460   -0.2130 H          1 M1A      0.441095
     12 H62         2.3970    2.5670   -0.0400 H          1 M1A      0.441095
     13 N1          2.3700   -0.6760   -0.0390 N*         1 M1A     -0.050133
     14 C2          1.4640   -1.6830   -0.1760 CA         1 M1A      0.013696
     15 H2          1.8850   -2.6670   -0.2240 H5         1 M1A      0.123001
     16 N3          0.1320   -1.5540   -0.1950 NC         1 M1A     -0.651883
     17 C4         -0.2310   -0.2590   -0.0880 CB         1 M1A      0.187216
     18 C2'        -3.2570   -0.8160    1.2310 CT         1 M1A     -0.486099
     19 H2'1       -3.4410    0.1130    1.7640 HC         1 M1A      0.153265
     20 HHO4       -4.3310   -0.4660   -1.1520 HO         1 M1A      0.402202
     21 H2'2       -4.2060   -1.3390    1.1730 HC         1 M1A      0.153265
     22 H2'3       -2.5590   -1.4080    1.8070 HC         1 M1A      0.153265
     23 C11         3.7800   -1.0920   -0.0030 CT         1 M1A     -0.107662
     24 1H11        4.4120   -0.2730    0.2890 H1         1 M1A      0.103331
     25 2H11        4.0860   -1.4600   -0.9760 H1         1 M1A      0.103331
     26 3H11        3.8950   -1.8780    0.7310 H1         1 M1A      0.103331
@<TRIPOS>BOND
    1     1     2 1
    2     2     4 1
    3     2    18 1
    4     4     5 1
    5     4    17 1
    6     5     7 1
    7     7     8 1
    8     8     9 1
    9     8    17 1
   10     9    10 1
   11     9    13 1
   12    13    14 1
   13    13    23 1
   14    14    16 1
   15    16    17 1
   16     1    20 1
   17     2     3 1
   18     5     6 1
   19    10    11 1
   20    10    12 1
   21    14    15 1
   22    18    19 1
   23    18    21 1
   24    18    22 1
   25    23    24 1
   26    23    25 1
   27    23    26 1
@<TRIPOS>SUBSTRUCTURE
      1 M1A               1 ****               0 ****  **** 
