@<TRIPOS>MOLECULE
modXNA-fragment:M1G:HEAD01:@N9:HEAD01STRIP:@C1',H1',O4',HHO4,C2',H2'1,H2'3,H2'2
   26    27     1     0     0
SMALL
USER_CHARGES


@<TRIPOS>ATOM
      1 O4'         3.7170   -0.0960    0.9700 OH         1 M1G     -0.733179
      2 C1'         2.7380   -0.6940    0.1750 CT         1 M1G      0.231449
      3 H1'         2.3400   -1.5790    0.6530 H2         1 M1G      0.090910
      4 N9          1.6480    0.2540    0.1080 N*         1 M1G      0.136401
      5 C8          1.7280    1.6280    0.0140 CK         1 M1G      0.086693
      6 H8          2.6740    2.1250    0.0370 H5         1 M1G      0.173643
      7 N7          0.5860    2.1960   -0.0710 NB         1 M1G     -0.550842
      8 C5         -0.3210    1.1590   -0.0360 CB         1 M1G      0.046999
      9 C6         -1.7520    1.1780   -0.0890 C          1 M1G      0.439031
     10 O6         -2.4880    2.1140   -0.1900 O          1 M1G     -0.548268
     11 N1         -2.2900   -0.1450    0.0050 N*         1 M1G     -0.217235
     12 C12        -3.7450   -0.2610    0.0430 CT         1 M1G     -0.089980
     13 C2         -1.5120   -1.2640    0.0860 CA         1 M1G      0.595189
     14 N2         -2.1550   -2.4630    0.1850 N2         1 M1G     -0.923823
     15 H21        -3.0300   -2.5790   -0.2720 H          1 M1G      0.401299
     16 H22        -1.5370   -3.2400    0.0990 H          1 M1G      0.401299
     17 N3         -0.2200   -1.2730    0.1160 NC         1 M1G     -0.692533
     18 C4          0.3240   -0.0370    0.0750 CB         1 M1G      0.100756
     19 C2'         3.2670   -1.0430   -1.2090 CT         1 M1G     -0.354551
     20 H2'1        3.6460   -0.1550   -1.7020 HC         1 M1G      0.128855
     21 HHO4        4.5000   -0.6290    0.9670 HO         1 M1G      0.480565
     22 H2'2        4.0710   -1.7700   -1.1350 HC         1 M1G      0.128855
     23 H2'3        2.4790   -1.4740   -1.8150 HC         1 M1G      0.128855
     24 1H12       -4.1470    0.7320    0.1320 H1         1 M1G      0.091624
     25 2H12       -4.0500   -0.8560    0.8930 H1         1 M1G      0.091624
     26 3H12       -4.1250   -0.7050   -0.8710 H1         1 M1G      0.091624
@<TRIPOS>BOND
    1     1     2 1
    2     2     4 1
    3     2    19 1
    4     4     5 1
    5     4    18 1
    6     5     7 1
    7     7     8 1
    8     8     9 1
    9     8    18 1
   10     9    10 1
   11     9    11 1
   12    11    12 1
   13    11    13 1
   14    13    14 1
   15    13    17 1
   16    17    18 1
   17     1    21 1
   18     2     3 1
   19     5     6 1
   20    12    24 1
   21    12    25 1
   22    12    26 1
   23    14    15 1
   24    14    16 1
   25    19    20 1
   26    19    22 1
   27    19    23 1
@<TRIPOS>SUBSTRUCTURE
      1 M1G               1 ****               0 ****  **** 
