@<TRIPOS>MOLECULE
modXNA-fragment:M1I:HEAD01:@N9:HEAD01STRIP:@C1',H1',O4',HHO4,C2',H2'1,H2'3,H2'2
   24    25     1     0     0
SMALL
USER_CHARGES


@<TRIPOS>ATOM
      1 O4'        -3.5700   -0.0960   -1.0310 OH         1 M1I     -0.716019
      2 C1'        -2.6690   -0.6260   -0.1170 CT         1 M1I      0.484086
      3 H1'        -2.3390   -1.6120   -0.4120 H2         1 M1I     -0.013325
      4 N9         -1.4620    0.1930   -0.0760 N*         1 M1I     -0.234333
      5 C8         -1.3890    1.5610    0.0150 CK         1 M1I      0.127680
      6 H8         -2.2740    2.1620    0.0170 H5         1 M1I      0.156425
      7 N7         -0.1880    2.0070    0.0710 NB         1 M1I     -0.534250
      8 C5          0.6000    0.8830    0.0240 CB         1 M1I      0.008581
      9 C6          2.0330    0.7500    0.0510 C          1 M1I      0.480787
     10 O6          2.8750    1.5950    0.1240 O          1 M1I     -0.561190
     11 N1          2.4080   -0.6140   -0.0220 N*         1 M1I     -0.220784
     12 C2          1.5190   -1.6320   -0.1090 CA         1 M1I      0.257100
     13 H2          1.9510   -2.6140   -0.1590 H5         1 M1I      0.130496
     14 N3          0.2450   -1.5280   -0.1350 NC         1 M1I     -0.663789
     15 C4         -0.1740   -0.2370   -0.0660 CB         1 M1I      0.286142
     16 C2'        -3.3620   -0.6860    1.2310 CT         1 M1I     -0.296348
     17 H2'1       -3.6850    0.3030    1.5330 HC         1 M1I      0.111332
     18 HHO4       -3.2100   -0.1490   -1.9080 HO         1 M1I      0.426324
     19 H2'2       -4.2330   -1.3260    1.1610 HC         1 M1I      0.111332
     20 H2'3       -2.6890   -1.0830    1.9810 HC         1 M1I      0.111332
     21 C8          3.8430   -0.8840    0.0000 CT         1 M1I     -0.208501
     22 H81         4.2750   -0.5050    0.9150 H1         1 M1I      0.132357
     23 H82         4.3230   -0.3950   -0.8340 H1         1 M1I      0.132357
     24 H83         4.0040   -1.9500   -0.0630 H1         1 M1I      0.132357
@<TRIPOS>BOND
    1     1     2 1
    2     2     4 1
    3     2    16 1
    4     4     5 1
    5     4    15 1
    6     5     7 1
    7     7     8 1
    8     8     9 1
    9     8    15 1
   10     9    10 1
   11     9    11 1
   12    11    12 1
   13    11    21 1
   14    12    14 1
   15    14    15 1
   16     1    18 1
   17     2     3 1
   18     5     6 1
   19    12    13 1
   20    16    17 1
   21    16    19 1
   22    16    20 1
   23    21    22 1
   24    21    23 1
   25    21    24 1
@<TRIPOS>SUBSTRUCTURE
      1 M1I               1 ****               0 ****  **** 
