@<TRIPOS>MOLECULE
modXNA-fragment:M1Y:HEAD01:@C1:HEAD01STRIP:@C1',H1',O4',HHO4,C2',H2'1,H2'3,H2'2
   22    22     1     0     0
SMALL
USER_CHARGES


@<TRIPOS>ATOM
      1 O4'        -2.4230   -1.6480    0.5290 OH         1 M1Y     -0.771207
      2 C1'        -2.2450   -0.2740    0.2750 CT         1 M1Y      0.388191
      3 H1'        -2.6090    0.3070    1.1180 H1         1 M1Y     -0.004613
      4 C1         -0.7590   -0.0330    0.1560 CM         1 M1Y     -0.253958
      5 C6          0.1370   -1.0130    0.0540 CM         1 M1Y     -0.017815
      6 H6         -0.1710   -2.0390    0.0550 H4         1 M1Y      0.223587
      7 N5          1.4950   -0.8140   -0.0500 N*         1 M1Y     -0.095661
      8 C8          2.3790   -1.9690   -0.1540 CT         1 M1Y     -0.164902
      9 C4          2.0320    0.4480   -0.0460 C          1 M1Y      0.576860
     10 O4          3.2040    0.6770   -0.1320 O          1 M1Y     -0.609397
     11 N3          1.1050    1.4530    0.0690 NA         1 M1Y     -0.701192
     12 H3          1.4800    2.3780    0.0830 H          1 M1Y      0.391913
     13 C2         -0.2690    1.3430    0.1810 C          1 M1Y      0.597454
     14 O2         -0.9520    2.3220    0.2900 O          1 M1Y     -0.602384
     15 C2'        -3.0070    0.1500   -0.9790 CT         1 M1Y     -0.354250
     16 H2'1       -2.6710   -0.4300   -1.8330 HC         1 M1Y      0.121568
     17 HHO4       -3.3480   -1.8360    0.5950 HO         1 M1Y      0.461782
     18 H2'2       -4.0730   -0.0200   -0.8480 HC         1 M1Y      0.121568
     19 H2'3       -2.8590    1.2020   -1.1810 HC         1 M1Y      0.121568
     20 H81         3.3930   -1.6170   -0.2210 H1         1 M1Y      0.109076
     21 H82         2.1390   -2.5430   -1.0400 H1         1 M1Y      0.109076
     22 H83         2.2740   -2.5990    0.7200 H1         1 M1Y      0.109076
@<TRIPOS>BOND
    1     1     2 1
    2     2     4 1
    3     2    15 1
    4     4     5 1
    5     4    13 1
    6     5     7 1
    7     7     8 1
    8     7     9 1
    9     9    10 1
   10     9    11 1
   11    11    13 1
   12    13    14 1
   13     1    17 1
   14     2     3 1
   15     5     6 1
   16     8    20 1
   17     8    21 1
   18     8    22 1
   19    11    12 1
   20    15    16 1
   21    15    18 1
   22    15    19 1
@<TRIPOS>SUBSTRUCTURE
      1 M1Y               1 ****               0 ****  **** 
