@<TRIPOS>MOLECULE
modXNA-fragment:M2A:HEAD01:@N9:HEAD01STRIP:@C1',H1',O4',HHO4,C2',H2'1,H2'3,H2'2
   25    26     1     0     0
SMALL
USER_CHARGES


@<TRIPOS>ATOM
      1 O4'        -3.4940   -0.1290    0.8490 OH         1 M2A     -0.751625
      2 C1'        -2.4960    0.6020    0.2020 CT         1 M2A      0.292464
      3 H1'        -2.1860    1.4470    0.8020 H2         1 M2A      0.064869
      4 N9         -1.3520   -0.2820    0.1210 N*         1 M2A     -0.007607
      5 C8         -1.3450   -1.6530    0.0210 CK         1 M2A      0.154285
      6 H8         -2.2590   -2.2070    0.0390 H5         1 M2A      0.165820
      7 N7         -0.1720   -2.1600   -0.0680 NB         1 M2A     -0.611402
      8 C5          0.6720   -1.0670   -0.0310 CB         1 M2A      0.032023
      9 C6          2.0630   -0.9220   -0.0790 CA         1 M2A      0.543774
     10 N6          2.8910   -1.9740   -0.2200 N2         1 M2A     -0.935602
     11 H61         3.8630   -1.8220   -0.0760 H          1 M2A      0.417813
     12 H62         2.5310   -2.8920   -0.0930 H          1 M2A      0.417813
     13 N1          2.5810    0.2950   -0.0050 NC         1 M2A     -0.825935
     14 C2          1.7680    1.3480    0.1010 CQ         1 M2A      0.673427
     15 C3          2.4480    2.6870    0.1720 CT         1 M2A     -0.308162
     16 N3          0.4520    1.3320    0.1500 NC         1 M2A     -0.781026
     17 C4         -0.0440    0.1000    0.0870 CB         1 M2A      0.218197
     18 C2'        -2.9390    1.0770   -1.1740 CT         1 M2A     -0.347661
     19 H2'1       -3.2330    0.2320   -1.7860 HC         1 M2A      0.129280
     20 HHO4       -4.3000    0.3680    0.8550 HO         1 M2A      0.483344
     21 H2'2       -3.7840    1.7550   -1.0860 HC         1 M2A      0.129280
     22 H2'3       -2.1320    1.6080   -1.6650 HC         1 M2A      0.129280
     23 H31         1.7170    3.4790    0.2570 HC         1 M2A      0.106660
     24 H32         3.0520    2.8420   -0.7150 HC         1 M2A      0.106660
     25 H33         3.1150    2.7170    1.0270 HC         1 M2A      0.106660
@<TRIPOS>BOND
    1     1     2 1
    2     2     4 1
    3     2    18 1
    4     4     5 1
    5     4    17 1
    6     5     7 1
    7     7     8 1
    8     8     9 1
    9     8    17 1
   10     9    10 1
   11     9    13 1
   12    13    14 1
   13    14    15 1
   14    14    16 1
   15    16    17 1
   16     1    20 1
   17     2     3 1
   18     5     6 1
   19    10    11 1
   20    10    12 1
   21    15    23 1
   22    15    24 1
   23    15    25 1
   24    18    19 1
   25    18    21 1
   26    18    22 1
@<TRIPOS>SUBSTRUCTURE
      1 M2A               1 ****               0 ****  **** 
