@<TRIPOS>MOLECULE
modXNA-fragment:M2C:HEAD01:@N1:HEAD01STRIP:@C1',H1',O4',HHO4,C2',H2'1,H2'3,H2'2
   25    25     1     0     0
SMALL
USER_CHARGES


@<TRIPOS>ATOM
      1 O4'         2.5150   -1.5330   -0.6350 OH         1 M2C     -0.750697
      2 C1'         2.0530   -0.2340   -0.3720 CT         1 M2C      0.332565
      3 H1'         2.1980    0.3960   -1.2410 H2         1 M2C      0.017394
      4 N1          0.6280   -0.3230   -0.1730 NT         1 M2C     -0.193831
      5 C6          0.0980   -1.2580    0.6440 CM         1 M2C      0.101365
      6 H6          0.8030   -1.8820    1.1580 HA         1 M2C      0.174332
      7 C5         -1.2230   -1.4130    0.7880 CD         1 M2C     -0.519558
      8 H5         -1.6410   -2.1520    1.4420 HA         1 M2C      0.223178
      9 C4         -2.0570   -0.5600   -0.0380 CM         1 M2C      0.668520
     10 N4         -3.4160   -0.7290    0.0550 NT         1 M2C     -0.980094
     11 H41        -3.9310   -0.2840   -0.6730 H          1 M2C      0.398718
     12 H42        -3.7410   -1.6400    0.2910 H          1 M2C      0.398718
     13 N3         -1.6090    0.3340   -0.8280 N2         1 M2C     -0.805017
     14 C2         -0.2230    0.6320   -0.8840 CT         1 M2C      0.480222
     15 O2          0.0660    1.9320   -0.4540 OS         1 M2C     -0.488681
     16 C2'         2.7910    0.3810    0.8120 CT         1 M2C     -0.333917
     17 H2'1        2.6440   -0.2130    1.7080 HC         1 M2C      0.111530
     18 HHO4        3.4620   -1.5340   -0.6630 HO         1 M2C      0.466990
     19 H2'2        3.8590    0.4320    0.6110 HC         1 M2C      0.111530
     20 H2'3        2.4340    1.3860    0.9910 HC         1 M2C      0.111530
     21 H2          0.0960    0.6440   -1.9170 H3         1 M2C      0.013466
     22 C11        -0.4770    2.3360    0.7720 CT         1 M2C      0.072879
     23 1H11       -0.0690    3.3160    0.9810 H1         1 M2C      0.045190
     24 2H11       -0.2000    1.6640    1.5790 H1         1 M2C      0.045190
     25 3H11       -1.5560    2.4020    0.7230 H1         1 M2C      0.045190
@<TRIPOS>BOND
    1     1     2 1
    2     2     4 1
    3     2    16 1
    4     4     5 1
    5     4    14 1
    6     5     7 1
    7     7     9 1
    8     9    10 1
    9     9    13 1
   10    13    14 1
   11    14    15 1
   12    15    22 1
   13     1    18 1
   14     2     3 1
   15     5     6 1
   16     7     8 1
   17    10    11 1
   18    10    12 1
   19    14    21 1
   20    16    17 1
   21    16    19 1
   22    16    20 1
   23    22    23 1
   24    22    24 1
   25    22    25 1
@<TRIPOS>SUBSTRUCTURE
      1 M2C               1 ****               0 ****  **** 
