@<TRIPOS>MOLECULE
modXNA-fragment:M2G:HEAD01:@N9:HEAD01STRIP:@C1',H1',O4',HHO4,C2',H2'1,H2'3,H2'2
   26    27     1     0     0
SMALL
USER_CHARGES


@<TRIPOS>ATOM
      1 O4'        -3.4220    0.7800    1.0400 OH         1 M2G     -0.719356
      2 C1'        -2.4290    0.9540    0.0840 CT         1 M2G      0.489960
      3 H1'        -1.8030    1.8050    0.3150 H2         1 M2G     -0.028240
      4 N9         -1.5360   -0.1970    0.0770 N*         1 M2G     -0.235599
      5 C8         -1.8940   -1.5280    0.0580 CK         1 M2G      0.159364
      6 H8         -2.9220   -1.8220    0.0920 H5         1 M2G      0.141217
      7 N7         -0.8930   -2.3220    0.0200 NB         1 M2G     -0.568249
      8 C5          0.2070   -1.4950    0.0040 CB         1 M2G      0.021213
      9 C6          1.6090   -1.8000   -0.0450 C          1 M2G      0.591969
     10 O6          2.1850   -2.8450   -0.0890 O          1 M2G     -0.592630
     11 N1          2.3590   -0.6000   -0.0440 NA         1 M2G     -0.659538
     12 H1          3.3420   -0.7420   -0.1340 H          1 M2G      0.408011
     13 C2          1.8590    0.6660   -0.0080 CA         1 M2G      0.687385
     14 N2          2.7680    1.6680   -0.0490 N2         1 M2G     -0.666030
     15 H2          3.7030    1.4370    0.1970 H          1 M2G      0.385808
     16 C16         2.3690    3.0500    0.1230 CT         1 M2G     -0.062941
     17 N3          0.5960    0.9310    0.0420 NC         1 M2G     -0.641971
     18 C4         -0.1790   -0.1830    0.0370 CB         1 M2G      0.202708
     19 C2'        -3.1120    1.1540   -1.2560 CT         1 M2G     -0.309310
     20 H2'1       -3.7310    0.2970   -1.4960 HC         1 M2G      0.116113
     21 HHO4       -3.0320    0.7420    1.9040 HO         1 M2G      0.426454
     22 H2'2       -3.7440    2.0330   -1.2130 HC         1 M2G      0.116113
     23 H2'3       -2.3730    1.2850   -2.0370 HC         1 M2G      0.116113
     24 1H16        3.2430    3.6700   -0.0180 H1         1 M2G      0.089165
     25 2H16        1.9510    3.2380    1.1060 H1         1 M2G      0.089165
     26 3H16        1.6310    3.3130   -0.6200 H1         1 M2G      0.089165
@<TRIPOS>BOND
    1     1     2 1
    2     2     4 1
    3     2    19 1
    4     4     5 1
    5     4    18 1
    6     5     7 1
    7     7     8 1
    8     8     9 1
    9     8    18 1
   10     9    10 1
   11     9    11 1
   12    11    13 1
   13    13    14 1
   14    13    17 1
   15    14    16 1
   16    17    18 1
   17     1    21 1
   18     2     3 1
   19     5     6 1
   20    11    12 1
   21    14    15 1
   22    16    24 1
   23    16    25 1
   24    16    26 1
   25    19    20 1
   26    19    22 1
   27    19    23 1
@<TRIPOS>SUBSTRUCTURE
      1 M2G               1 ****               0 ****  **** 
