@<TRIPOS>MOLECULE
modXNA-fragment:M3A:HEAD01:@N9:HEAD01STRIP:@C1',H1',O4',HHO4,C2',H2'1,H2'3,H2'2
   26    27     1     0     0
SMALL
USER_CHARGES


@<TRIPOS>ATOM
      1 O4'        -2.9500    0.4730    0.9960 OH         1 M3A     -0.677536
      2 C1'        -2.4050    0.1280   -0.2490 CT         1 M3A      0.310083
      3 H1'        -2.2150    1.0200   -0.8310 H2         1 M3A      0.070107
      4 N9         -1.1180   -0.4680   -0.0150 N*         1 M3A     -0.095344
      5 C8         -0.8310   -1.7750    0.2750 CK         1 M3A      0.163031
      6 H8         -1.6020   -2.5030    0.4090 H5         1 M3A      0.136532
      7 N7          0.4290   -2.0160    0.3680 NB         1 M3A     -0.604054
      8 C5          1.0370   -0.8020    0.1490 CB         1 M3A      0.104220
      9 C6          2.4260   -0.4610   -0.0070 CA         1 M3A      0.457678
     10 N6          3.4300   -1.4080    0.1290 N2         1 M3A     -0.934455
     11 H61         4.3310   -1.0060    0.2780 H          1 M3A      0.377765
     12 H62         3.2210   -2.1300    0.7850 H          1 M3A      0.377765
     13 N1          2.7180    0.7570   -0.4360 NC         1 M3A     -0.604494
     14 C2          1.7710    1.6530   -0.6440 CA         1 M3A      0.212341
     15 H2          2.0510    2.6220   -1.0060 H5         1 M3A      0.094952
     16 N3          0.3820    1.5010   -0.3380 N*         1 M3A     -0.513683
     17 C4          0.1060    0.1620   -0.0550 CB         1 M3A      0.159203
     18 C2'        -3.3380   -0.7880   -1.0290 CT         1 M3A     -0.431359
     19 H2'1       -2.8860   -1.0940   -1.9640 HC         1 M3A      0.156015
     20 HHO4       -3.7990    0.8760    0.8720 HO         1 M3A      0.440966
     21 H2'2       -3.5960   -1.6670   -0.4510 HC         1 M3A      0.156015
     22 H2'3       -4.2580   -0.2580   -1.2550 HC         1 M3A      0.156015
     23 C11        -0.0850    2.4800    0.6520 CT         1 M3A     -0.018187
     24 1H11        0.4280    2.3710    1.6040 H1         1 M3A      0.068071
     25 2H11       -1.1450    2.3640    0.8180 H1         1 M3A      0.068071
     26 3H11        0.0980    3.4750    0.2650 H1         1 M3A      0.068071
@<TRIPOS>BOND
    1     1     2 1
    2     2     4 1
    3     2    18 1
    4     4     5 1
    5     4    17 1
    6     5     7 1
    7     7     8 1
    8     8     9 1
    9     8    17 1
   10     9    10 1
   11     9    13 1
   12    13    14 1
   13    14    16 1
   14    16    17 1
   15    16    23 1
   16     1    20 1
   17     2     3 1
   18     5     6 1
   19    10    11 1
   20    10    12 1
   21    14    15 1
   22    18    19 1
   23    18    21 1
   24    18    22 1
   25    23    24 1
   26    23    25 1
   27    23    26 1
@<TRIPOS>SUBSTRUCTURE
      1 M3A               1 ****               0 ****  **** 
