@<TRIPOS>MOLECULE
modXNA-fragment:M3C:HEAD01:@N1:HEAD01STRIP:@C1',H1',O4',HHO4,C2',H2'1,H2'3,H2'2
   24    24     1     0     0
SMALL
USER_CHARGES


@<TRIPOS>ATOM
      1 O4'        -2.8520   -0.7430    0.9770 OH         1 M3C     -0.750674
      2 C1'        -2.2310    0.2200    0.1680 CT         1 M3C      0.349914
      3 H1'        -2.2970    1.1930    0.6240 H2         1 M3C      0.034599
      4 N1         -0.8220   -0.1240    0.1270 N*         1 M3C     -0.196031
      5 C6         -0.4480   -1.4680   -0.0490 CM         1 M3C     -0.077636
      6 H6         -1.2370   -2.1850   -0.0240 H4         1 M3C      0.204649
      7 C5          0.8970   -1.7840   -0.1070 CM         1 M3C     -0.358882
      8 H5          1.2030   -2.8100   -0.1870 HA         1 M3C      0.212996
      9 C4          1.8430   -0.7850   -0.0500 CM         1 M3C      0.346358
     10 N4          3.2320   -0.9730   -0.1660 N2         1 M3C     -0.930841
     11 H41         3.7200   -0.8380    0.7000 H          1 M3C      0.374718
     12 H42         3.4450   -1.8850   -0.5120 H          1 M3C      0.374718
     13 N3          1.4160    0.5580    0.0620 N*         1 M3C     -0.160518
     14 C2          0.0890    0.9020    0.1460 C          1 M3C      0.461336
     15 O2         -0.2670    2.0520    0.2190 O          1 M3C     -0.607159
     16 C2'        -2.8500    0.2560   -1.2240 CT         1 M3C     -0.280508
     17 H2'1       -2.3580    1.0080   -1.8300 HC         1 M3C      0.097081
     18 HHO4       -3.7730   -0.5350    1.0540 HO         1 M3C      0.464537
     19 H2'2       -2.7590   -0.7080   -1.7100 HC         1 M3C      0.097081
     20 H2'3       -3.9060    0.5110   -1.1640 HC         1 M3C      0.097081
     21 C10         2.4010    1.6310    0.0050 CT         1 M3C     -0.144224
     22 1H10        3.0020    1.5400   -0.8880 H1         1 M3C      0.099273
     23 2H10        3.0560    1.5990    0.8690 H1         1 M3C      0.099273
     24 3H10        1.8750    2.5680    0.0040 H1         1 M3C      0.099273
@<TRIPOS>BOND
    1     1     2 1
    2     2     4 1
    3     2    16 1
    4     4     5 1
    5     4    14 1
    6     5     7 1
    7     7     9 1
    8     9    10 1
    9     9    13 1
   10    13    14 1
   11    13    21 1
   12    14    15 1
   13     1    18 1
   14     2     3 1
   15     5     6 1
   16     7     8 1
   17    10    11 1
   18    10    12 1
   19    16    17 1
   20    16    19 1
   21    16    20 1
   22    21    22 1
   23    21    23 1
   24    21    24 1
@<TRIPOS>SUBSTRUCTURE
      1 M3C               1 ****               0 ****  **** 
