@<TRIPOS>MOLECULE
modXNA-fragment:M3G:HEAD01:@N9:HEAD01STRIP:@C1',H1',O4',HHO4,C2',H2'1,H2'3,H2'2
   26    27     1     0     0
SMALL
USER_CHARGES


@<TRIPOS>ATOM
      1 O4'         2.9010   -0.8560    1.0550 OH         1 M3G     -0.624678
      2 C1'         2.4630   -0.4500   -0.2110 CT         1 M3G      0.188454
      3 H1'         2.1030   -1.3040   -0.7700 H2         1 M3G      0.097011
      4 N9          1.3330    0.4260   -0.0240 N*         1 M3G     -0.007969
      5 C8          1.3640    1.8010    0.0960 CK         1 M3G      0.179632
      6 N7          0.2080    2.3330    0.1640 NB         1 M3G     -0.583931
      7 C5         -0.6760    1.2800    0.1060 CB         1 M3G      0.042308
      8 C6         -2.1380    1.2870    0.0710 C          1 M3G      0.642262
      9 O6         -2.8220    2.2530    0.2080 O          1 M3G     -0.589683
     10 N1         -2.6880    0.0250   -0.1820 NC         1 M3G     -0.615959
     11 C2         -1.9870   -1.0370   -0.2080 CA         1 M3G      0.621346
     12 N2         -2.6230   -2.2470   -0.3450 N2         1 M3G     -0.868563
     13 H21        -3.5940   -2.1240   -0.5390 H          1 M3G      0.374301
     14 H22        -2.1850   -2.9170   -0.9400 H          1 M3G      0.374301
     15 N3         -0.6120   -1.1230   -0.0710 N*         1 M3G     -0.421200
     16 C4         -0.0000    0.1140    0.0160 CB         1 M3G      0.066593
     17 C2'         3.5850    0.2070   -1.0050 CT         1 M3G     -0.348254
     18 H2'1        4.0410    1.0140   -0.4460 HC         1 M3G      0.136980
     19 HHO4        3.6980   -1.3650    0.9760 HO         1 M3G      0.429004
     20 H2'2        4.3540   -0.5310   -1.2100 HC         1 M3G      0.136980
     21 H2'3        3.2210    0.5860   -1.9520 HC         1 M3G      0.136980
     22 C23         0.0000   -2.3400    0.4710 CT         1 M3G      0.147613
     23 1H23        0.3410   -2.9970   -0.3210 H1         1 M3G      0.020469
     24 2H23       -0.7240   -2.8670    1.0730 H1         1 M3G      0.020469
     25 3H23        0.8380   -2.0720    1.0940 H1         1 M3G      0.020469
     26 H8          2.2900    2.3340    0.1260 H5         1 M3G      0.133275
@<TRIPOS>BOND
    1     1     2 1
    2     2     4 1
    3     2    17 1
    4     4     5 1
    5     4    16 1
    6     5     6 1
    7     6     7 1
    8     7     8 1
    9     7    16 1
   10     8     9 1
   11     8    10 1
   12    10    11 1
   13    11    12 1
   14    11    15 1
   15    15    16 1
   16    15    22 1
   17     1    19 1
   18     2     3 1
   19     5    26 1
   20    12    13 1
   21    12    14 1
   22    17    18 1
   23    17    20 1
   24    17    21 1
   25    22    23 1
   26    22    24 1
   27    22    25 1
@<TRIPOS>SUBSTRUCTURE
      1 M3G               1 ****               0 ****  **** 
