@<TRIPOS>MOLECULE
modXNA-fragment:M3I:HEAD01:@N9:HEAD01STRIP:@C1',H1',O4',HHO4,C2',H2'1,H2'3,H2'2
   24    25     1     0     0
SMALL
USER_CHARGES


@<TRIPOS>ATOM
      1 O4'        -2.5980    0.6320    1.1410 OH         1 M3I     -0.612938
      2 C1'        -2.3620    0.1240   -0.1410 CT         1 M3I      0.298697
      3 H1'        -2.3310    0.9340   -0.8560 H2         1 M3I      0.053756
      4 N9         -1.0530   -0.4870   -0.1260 N*         1 M3I     -0.173129
      5 C8         -0.7810   -1.8380   -0.0080 CK         1 M3I      0.222137
      6 H8         -1.5660   -2.5620    0.0020 H5         1 M3I      0.123554
      7 N7          0.4610   -2.1060    0.0650 NB         1 M3I     -0.585099
      8 C5          1.0970   -0.8880    0.0200 CB         1 M3I      0.008991
      9 C6          2.5260   -0.6020    0.0610 C          1 M3I      0.697660
     10 O6          3.3910   -1.4160    0.1390 O          1 M3I     -0.604836
     11 N1          2.8160    0.7750   -0.0020 NC         1 M3I     -0.754796
     12 C2          1.8990    1.6400   -0.0890 CA         1 M3I      0.260264
     13 H2          2.1770    2.6800   -0.1290 H5         1 M3I      0.117732
     14 N3          0.5450    1.4340   -0.1370 N*         1 M3I     -0.122771
     15 C4          0.1810    0.1090   -0.0840 CB         1 M3I      0.106271
     16 C2'        -3.4550   -0.8460   -0.5660 CT         1 M3I     -0.359507
     17 H2'1       -3.6000   -1.6220    0.1740 HC         1 M3I      0.136649
     18 HHO4       -3.4830    0.9680    1.2010 HO         1 M3I      0.411527
     19 H2'2       -4.3870   -0.3000   -0.6620 HC         1 M3I      0.136649
     20 H2'3       -3.2320   -1.2960   -1.5260 HC         1 M3I      0.136649
     21 C8         -0.3650    2.5630   -0.2360 CT         1 M3I     -0.162561
     22 H81        -1.1340    2.4950    0.5170 H1         1 M3I      0.108863
     23 H82        -0.8130    2.6240   -1.2210 H1         1 M3I      0.108863
     24 H83         0.2000    3.4680   -0.0680 H1         1 M3I      0.108863
@<TRIPOS>BOND
    1     1     2 1
    2     2     4 1
    3     2    16 1
    4     4     5 1
    5     4    15 1
    6     5     7 1
    7     7     8 1
    8     8     9 1
    9     8    15 1
   10     9    10 1
   11     9    11 1
   12    11    12 1
   13    12    14 1
   14    14    15 1
   15    14    21 1
   16     1    18 1
   17     2     3 1
   18     5     6 1
   19    12    13 1
   20    16    17 1
   21    16    19 1
   22    16    20 1
   23    21    22 1
   24    21    23 1
   25    21    24 1
@<TRIPOS>SUBSTRUCTURE
      1 M3I               1 ****               0 ****  **** 
