@<TRIPOS>MOLECULE
modXNA-fragment:M3T:HEAD01:@N1:HEAD01STRIP:@C1',H1',O4',HHO4,C2',H2'1,H2'3,H2'2
   25    25     1     0     0
SMALL
USER_CHARGES


@<TRIPOS>ATOM
      1 C1'        -2.3450   -0.0700   -0.1930 CT         1 M3T      0.360824
      2 C2'        -2.9590   -0.0980    1.1980 CT         1 M3T     -0.378887
      3 O4'        -2.7750    1.0380   -0.9290 OH         1 M3T     -0.731884
      4 O4          3.0820    0.2070    0.1010 O          1 M3T     -0.554760
      5 C4          1.8860    0.1810    0.0350 C          1 M3T      0.484270
      6 N3          1.1940   -1.0260   -0.0560 N*         1 M3T     -0.193845
      7 C2         -0.1730   -1.1470   -0.1210 C          1 M3T      0.507729
      8 O2         -0.7120   -2.2200   -0.1530 O          1 M3T     -0.597962
      9 N1         -0.8870    0.0240   -0.1390 N*         1 M3T     -0.215665
     10 C6         -0.2620    1.2500   -0.0400 CM         1 M3T     -0.108650
     11 C5          1.0570    1.3880    0.0460 CM         1 M3T     -0.081987
     12 C7          1.7570    2.7150    0.1440 CT         1 M3T     -0.241748
     13 H1'        -2.5670   -0.9850   -0.7170 H2         1 M3T      0.045364
     14 H2'1       -4.0400   -0.1750    1.1310 HC         1 M3T      0.136246
     15 H2'2       -2.5950   -0.9560    1.7500 HC         1 M3T      0.136246
     16 C3          1.9460   -2.2810   -0.0570 CT         1 M3T     -0.122834
     17 H6         -0.9250    2.0890   -0.0570 H4         1 M3T      0.255203
     18 H71         2.3440    2.7770    1.0540 HC         1 M3T      0.107420
     19 H72         2.4400    2.8530   -0.6860 HC         1 M3T      0.107420
     20 H73         1.0400    3.5280    0.1390 HC         1 M3T      0.107420
     21 H2'3       -2.7130    0.8080    1.7420 HC         1 M3T      0.136246
     22 HHO4       -3.7160    0.9990   -1.0340 HO         1 M3T      0.465780
     23 H31         2.9920   -2.0390   -0.0400 H1         1 M3T      0.102347
     24 H32         1.7070   -2.8490   -0.9450 H1         1 M3T      0.102347
     25 H33         1.6840   -2.8690    0.8110 H1         1 M3T      0.102347
@<TRIPOS>BOND
    1     1     2 1
    2     1     3 1
    3     1     9 1
    4     4     5 1
    5     5     6 1
    6     5    11 1
    7     6     7 1
    8     6    16 1
    9     7     8 1
   10     7     9 1
   11     9    10 1
   12    10    11 1
   13    11    12 1
   14     1    13 1
   15     2    14 1
   16     2    15 1
   17     2    21 1
   18     3    22 1
   19    10    17 1
   20    12    18 1
   21    12    19 1
   22    12    20 1
   23    16    23 1
   24    16    24 1
   25    16    25 1
@<TRIPOS>SUBSTRUCTURE
      1 M3T               1 ****               0 ****  **** 
