@<TRIPOS>MOLECULE
modXNA-fragment:M3U:HEAD01:@N1:HEAD01STRIP:@C1',H1',O4',HHO4,C2',H2'1,H2'3,H2'2
   22    22     1     0     0
SMALL
USER_CHARGES


@<TRIPOS>ATOM
      1 O4'        -2.8970   -0.6010    0.9550 OH         1 M3U     -0.700668
      2 C1'        -2.1930    0.2820    0.1470 CT         1 M3U      0.416550
      3 H1'        -2.2120    1.2820    0.5440 H2         1 M3U      0.019309
      4 N1         -0.7700   -0.1060    0.1160 N*         1 M3U     -0.326094
      5 C6         -0.4240   -1.4300   -0.0060 CM         1 M3U      0.013894
      6 H6         -1.2510   -2.1110   -0.0040 H4         1 M3U      0.210086
      7 C5          0.8370   -1.8350   -0.0970 CM         1 M3U     -0.419561
      8 H5          1.1030   -2.8680   -0.1820 HA         1 M3U      0.225570
      9 C4          1.9160   -0.8560   -0.0730 C          1 M3U      0.580173
     10 O4          3.0760   -1.1390   -0.1430 O          1 M3U     -0.590166
     11 N3          1.4970    0.4730    0.0380 N*         1 M3U     -0.226028
     12 C3          2.5010    1.5370    0.0530 CT         1 M3U     -0.207655
     13 C2          0.1870    0.8840    0.1110 C          1 M3U      0.526889
     14 O2         -0.1060    2.0460    0.1690 O          1 M3U     -0.597441
     15 C2'        -2.8150    0.2520   -1.2350 CT         1 M3U     -0.266401
     16 H2'1       -2.7820   -0.7500   -1.6500 HC         1 M3U      0.106508
     17 HHO4       -2.6840   -0.4460    1.8660 HO         1 M3U      0.431234
     18 H2'2       -3.8510    0.5610   -1.1730 HC         1 M3U      0.106508
     19 H2'3       -2.2840    0.9260   -1.8960 HC         1 M3U      0.106508
     20 H31         3.4700    1.0750    0.0150 H1         1 M3U      0.129151
     21 H32         2.4000    2.1230    0.9550 H1         1 M3U      0.129151
     22 H33         2.3630    2.1870   -0.7990 H1         1 M3U      0.129151
@<TRIPOS>BOND
    1     1     2 1
    2     2     4 1
    3     2    15 1
    4     4     5 1
    5     4    13 1
    6     5     7 1
    7     7     9 1
    8     9    10 1
    9     9    11 1
   10    11    12 1
   11    11    13 1
   12    13    14 1
   13     1    17 1
   14     2     3 1
   15     5     6 1
   16     7     8 1
   17    12    20 1
   18    12    21 1
   19    12    22 1
   20    15    16 1
   21    15    18 1
   22    15    19 1
@<TRIPOS>SUBSTRUCTURE
      1 M3U               1 ****               0 ****  **** 
