@<TRIPOS>MOLECULE
modXNA-fragment:M3Y:HEAD01:@C1:HEAD01STRIP:@C1',H1',O4',HHO4,C2',H2'1,H2'3,H2'2
   22    22     1     0     0
SMALL
USER_CHARGES


@<TRIPOS>ATOM
      1 O4'        -2.9670   -1.0740    0.5180 OH         1 M3Y     -0.778339
      2 C1'        -2.2830    0.1350    0.2760 CT         1 M3Y      0.367902
      3 H1'        -2.3880    0.7940    1.1320 H1         1 M3Y      0.008458
      4 C1         -0.8210   -0.2120    0.1340 CM         1 M3Y     -0.252798
      5 C6         -0.3730   -1.4560   -0.0020 CM         1 M3Y      0.070944
      6 H6         -1.0280   -2.3020   -0.0170 H4         1 M3Y      0.213444
      7 N5          0.9640   -1.7300   -0.1240 NA         1 M3Y     -0.591163
      8 H5          1.2870   -2.6660   -0.2200 H          1 M3Y      0.383691
      9 C4          1.9490   -0.7800   -0.1070 C          1 M3Y      0.552024
     10 O4          3.1040   -1.0780   -0.2150 O          1 M3Y     -0.606006
     11 N3          1.4980    0.5120    0.0430 N*         1 M3Y     -0.172484
     12 C12         2.4790    1.5970    0.0830 CT         1 M3Y     -0.176524
     13 C2          0.1600    0.8740    0.1760 C          1 M3Y      0.498306
     14 O2         -0.1360    2.0280    0.3210 O          1 M3Y     -0.571609
     15 C2'        -2.8430    0.8370   -0.9590 CT         1 M3Y     -0.344521
     16 H2'1       -2.7650    0.1870   -1.8240 HC         1 M3Y      0.118172
     17 HHO4       -3.8950   -0.8980    0.5930 HO         1 M3Y      0.467946
     18 H2'2       -3.8910    1.0840   -0.8090 HC         1 M3Y      0.118172
     19 H2'3       -2.3080    1.7570   -1.1530 HC         1 M3Y      0.118172
     20 1H12        3.4570    1.1720   -0.0510 H1         1 M3Y      0.116773
     21 2H12        2.4190    2.1070    1.0330 H1         1 M3Y      0.116773
     22 3H12        2.2670    2.3060   -0.7040 H1         1 M3Y      0.116773
@<TRIPOS>BOND
    1     1     2 1
    2     2     4 1
    3     2    15 1
    4     4     5 1
    5     4    13 1
    6     5     7 1
    7     7     9 1
    8     9    10 1
    9     9    11 1
   10    11    12 1
   11    11    13 1
   12    13    14 1
   13     1    17 1
   14     2     3 1
   15     5     6 1
   16     7     8 1
   17    12    20 1
   18    12    21 1
   19    12    22 1
   20    15    16 1
   21    15    18 1
   22    15    19 1
@<TRIPOS>SUBSTRUCTURE
      1 M3Y               1 ****               0 ****  **** 
