@<TRIPOS>MOLECULE
modXNA-fragment:M4A:HEAD01:@N9:HEAD01STRIP:@C1',H1',O4',HHO4,C2',H2'1,H2'3,H2'2
   27    28     1     0     0
SMALL
USER_CHARGES


@<TRIPOS>ATOM
      1 O4'        -3.0300   -0.0530    1.0010 OH         1 M4A     -0.698599
      2 C1'        -2.4280    0.3100   -0.2180 CT         1 M4A      0.407819
      3 H1'        -2.3400    1.3910   -0.2710 H2         1 M4A      0.016450
      4 N9         -1.0980   -0.2110   -0.2620 NT         1 M4A     -0.602224
      5 C8         -0.8300   -1.5630   -0.0740 CM         1 M4A      0.354252
      6 H8         -1.6150   -2.2850   -0.1930 HA         1 M4A      0.101951
      7 N7          0.3600   -1.8700    0.2070 N2         1 M4A     -0.669301
      8 C5          1.0560   -0.6440    0.2240 CM         1 M4A     -0.032136
      9 C6          2.3440   -0.4240   -0.0150 CM         1 M4A      0.499825
     10 N6          3.3280   -1.3970   -0.0230 NT         1 M4A     -0.990418
     11 H61         4.0540   -1.2130   -0.6810 H          1 M4A      0.410139
     12 H62         2.9710   -2.3260   -0.0870 H          1 M4A      0.410139
     13 N1          2.8110    0.8620   -0.3190 N2         1 M4A     -0.734306
     14 C2          1.9280    1.7230   -0.6120 CM         1 M4A      0.411583
     15 H2          2.2490    2.6880   -0.9680 HA         1 M4A      0.071001
     16 N3          0.5770    1.5530   -0.5580 NT         1 M4A     -0.914483
     17 C4          0.0640    0.4910    0.2860 CT         1 M4A      0.628310
     18 C2'        -3.2620   -0.1640   -1.4030 CT         1 M4A     -0.354130
     19 H2'1       -3.3850   -1.2410   -1.3870 HC         1 M4A      0.125357
     20 HHO4       -3.9310    0.2420    1.0210 HO         1 M4A      0.429771
     21 H2'2       -4.2520    0.2840   -1.3710 HC         1 M4A      0.125357
     22 H2'3       -2.7880    0.1190   -2.3340 HC         1 M4A      0.125357
     23 C11        -0.1860    1.0080    1.7110 CT         1 M4A     -0.448300
     24 1H11       -0.5320    0.2050    2.3490 HC         1 M4A      0.147274
     25 2H11       -0.9340    1.7960    1.7250 HC         1 M4A      0.147274
     26 3H11        0.7390    1.4030    2.1140 HC         1 M4A      0.147274
     27 H3          0.0330    2.3830   -0.6400 H          1 M4A      0.421428
@<TRIPOS>BOND
    1     1     2 1
    2     2     4 1
    3     2    18 1
    4     4     5 1
    5     4    17 1
    6     5     7 1
    7     7     8 1
    8     8     9 1
    9     8    17 1
   10     9    10 1
   11     9    13 1
   12    13    14 1
   13    14    16 1
   14    16    17 1
   15    17    23 1
   16     1    20 1
   17     2     3 1
   18     5     6 1
   19    10    11 1
   20    10    12 1
   21    14    15 1
   22    16    27 1
   23    18    19 1
   24    18    21 1
   25    18    22 1
   26    23    24 1
   27    23    25 1
   28    23    26 1
@<TRIPOS>SUBSTRUCTURE
      1 M4A               1 ****               0 ****  **** 
