@<TRIPOS>MOLECULE
modXNA-fragment:M4C:HEAD01:@N1:HEAD01STRIP:@C1',H1',O4',HHO4,C2',H2'1,H2'3,H2'2
   26    26     1     0     0
SMALL
USER_CHARGES


@<TRIPOS>ATOM
      1 O4'        -3.1370   -1.2510    0.7240 OH         1 M4C     -0.759803
      2 C1'        -2.7060   -0.0190    0.2160 CT         1 M4C      0.314448
      3 H1'        -2.9290    0.7780    0.9070 H2         1 M4C      0.045010
      4 N1         -1.2490   -0.0960    0.1380 N*         1 M4C     -0.172901
      5 C6         -0.6040   -1.2730   -0.0080 CM         1 M4C      0.090472
      6 H6         -1.2230   -2.1450   -0.0390 H4         1 M4C      0.206751
      7 C5          0.7330   -1.3410   -0.0940 CM         1 M4C     -0.502925
      8 H5          1.2190   -2.2860   -0.2020 HA         1 M4C      0.220921
      9 C4          1.4450   -0.0890   -0.0110 CA         1 M4C      0.561878
     10 N4          2.7920   -0.0800   -0.0740 N2         1 M4C     -0.158336
     11 C11         3.5480    1.1550    0.0450 CT         1 M4C     -0.146470
     12 C12         3.5570   -1.3070   -0.1740 CT         1 M4C     -0.146470
     13 N3          0.8180    1.0470    0.1210 NC         1 M4C     -0.790505
     14 C2         -0.5310    1.1140    0.1810 C          1 M4C      0.650525
     15 O2         -1.1530    2.1410    0.2640 O          1 M4C     -0.658164
     16 C2'        -3.3260    0.2740   -1.1420 CT         1 M4C     -0.296767
     17 H2'1       -3.0920   -0.5220   -1.8410 HC         1 M4C      0.107956
     18 HHO4       -4.0760   -1.2250    0.8460 HO         1 M4C      0.479184
     19 H2'2       -4.4070    0.3460   -1.0530 HC         1 M4C      0.107956
     20 H2'3       -2.9530    1.2140   -1.5240 HC         1 M4C      0.107956
     21 1H11        4.2290    1.2510   -0.7940 H1         1 M4C      0.095598
     22 2H11        4.1290    1.1570    0.9630 H1         1 M4C      0.095598
     23 3H11        2.8720    1.9900    0.0540 H1         1 M4C      0.095598
     24 1H12        4.6060   -1.0510   -0.2160 H1         1 M4C      0.095598
     25 2H12        3.3160   -1.8620   -1.0740 H1         1 M4C      0.095598
     26 3H12        3.4070   -1.9530    0.6850 H1         1 M4C      0.095598
@<TRIPOS>BOND
    1     1     2 1
    2     2     4 1
    3     2    16 1
    4     4     5 1
    5     4    14 1
    6     5     7 1
    7     7     9 1
    8     9    10 1
    9     9    13 1
   10    10    11 1
   11    10    12 1
   12    13    14 1
   13    14    15 1
   14     1    18 1
   15     2     3 1
   16     5     6 1
   17     7     8 1
   18    11    21 1
   19    11    22 1
   20    11    23 1
   21    12    24 1
   22    12    25 1
   23    12    26 1
   24    16    17 1
   25    16    19 1
   26    16    20 1
@<TRIPOS>SUBSTRUCTURE
      1 M4C               1 ****               0 ****  **** 
