@<TRIPOS>MOLECULE
modXNA-fragment:M5C:HEAD01:@N1:HEAD01STRIP:@C1',H1',O4',HHO4,C2',H2'1,H2'3,H2'2
   23    23     1     0     0
SMALL
USER_CHARGES


@<TRIPOS>ATOM
      1 O4'         2.3890    1.4450    0.7900 OH         1 M5C     -0.762655
      2 C1'         2.1910    0.1790    0.2260 CT         1 M5C      0.390911
      3 H1'         2.5640   -0.5920    0.8810 H2         1 M5C      0.025812
      4 N1          0.7450   -0.0160    0.1520 N*         1 M5C     -0.289132
      5 C6         -0.1050    1.0330    0.0310 CM         1 M5C     -0.014320
      6 H6          0.3540    2.0000    0.0230 H4         1 M5C      0.238228
      7 C5         -1.4350    0.8740   -0.0560 CM         1 M5C     -0.172087
      8 C8         -2.3910    2.0300   -0.1930 CT         1 M5C     -0.200214
      9 C4         -1.8750   -0.5010   -0.0060 CA         1 M5C      0.638590
     10 N4         -3.1950   -0.7700   -0.0960 N2         1 M5C     -0.977299
     11 H41        -3.4690   -1.7130    0.0650 H          1 M5C      0.422919
     12 H42        -3.8740   -0.0620    0.0490 H          1 M5C      0.422919
     13 N3         -1.0740   -1.5140    0.0990 NC         1 M5C     -0.828337
     14 C2          0.2710   -1.3360    0.1570 C          1 M5C      0.688360
     15 O2          1.0670   -2.2360    0.2110 O          1 M5C     -0.658662
     16 C2'         2.8440    0.0670   -1.1430 CT         1 M5C     -0.333607
     17 H2'1        2.4590    0.8330   -1.8070 HC         1 M5C      0.118502
     18 HHO4        3.3170    1.5870    0.9160 HO         1 M5C      0.471652
     19 H2'2        3.9200    0.1960   -1.0570 HC         1 M5C      0.118502
     20 H2'3        2.6520   -0.9100   -1.5660 HC         1 M5C      0.118502
     21 H81        -1.8480    2.9660   -0.2380 HC         1 M5C      0.088791
     22 H82        -3.0760    2.0970    0.6500 HC         1 M5C      0.088791
     23 H83        -2.9880    1.9540   -1.0980 HC         1 M5C      0.088791
@<TRIPOS>BOND
    1     1     2 1
    2     2     4 1
    3     2    16 1
    4     4     5 1
    5     4    14 1
    6     5     7 1
    7     7     8 1
    8     7     9 1
    9     9    10 1
   10     9    13 1
   11    13    14 1
   12    14    15 1
   13     1    18 1
   14     2     3 1
   15     5     6 1
   16     8    21 1
   17     8    22 1
   18     8    23 1
   19    10    11 1
   20    10    12 1
   21    16    17 1
   22    16    19 1
   23    16    20 1
@<TRIPOS>SUBSTRUCTURE
      1 M5C               1 ****               0 ****  **** 
