@<TRIPOS>MOLECULE
modXNA-fragment:M5D:HEAD01:@N1:HEAD01STRIP:@C1',H1',O4',HO4',C2',H2'1,H2'3,H2'2
   24    24     1     0     0
SMALL
USER_CHARGES


@<TRIPOS>ATOM
      1 O4'        -2.5980    0.0990    1.2450 OH         1 M5D     -0.712368
      2 C1'        -2.1290    0.0990   -0.0790 CT         1 M5D      0.312670
      3 H1'        -2.4160    1.0090   -0.5780 H2         1 M5D      0.067108
      4 N1         -0.6840    0.1090   -0.0170 N          1 M5D     -0.228619
      5 C6         -0.0230   -0.8440    0.8700 CT         1 M5D     -0.168563
      6 H61        -0.5870   -1.7640    0.8640 H1         1 M5D      0.149411
      7 C5          1.4080   -1.1060    0.4120 CT         1 M5D      0.005828
      8 C8          1.4950   -1.9200   -0.8860 CT         1 M5D     -0.049937
      9 C4          2.1340    0.2090    0.2370 C          1 M5D      0.497862
     10 O4          3.3160    0.3350    0.3160 O          1 M5D     -0.572950
     11 N3          1.3210    1.2800   -0.0580 N          1 M5D     -0.613666
     12 H3          1.7770    2.1440   -0.2630 H          1 M5D      0.369772
     13 C2         -0.0450    1.2820   -0.2980 C          1 M5D      0.548604
     14 O2         -0.5670    2.2620   -0.7470 O          1 M5D     -0.617037
     15 C2'        -2.6630   -1.0970   -0.8540 CT         1 M5D     -0.340847
     16 H2'1       -2.2810   -1.0910   -1.8680 HC         1 M5D      0.119071
     17 HO4'       -3.5310    0.2630    1.2550 HO         1 M5D      0.451249
     18 H2'2       -2.3970   -2.0350   -0.3820 HC         1 M5D      0.119071
     19 H2'3       -3.7470   -1.0490   -0.9010 HC         1 M5D      0.119071
     20 H62        -0.0320   -0.4720    1.8890 H1         1 M5D      0.149411
     21 H5          1.9350   -1.6390    1.1940 HC         1 M5D      0.049264
     22 H81         1.0420   -2.8960   -0.7430 HC         1 M5D      0.030396
     23 H82         2.5300   -2.0650   -1.1710 HC         1 M5D      0.030396
     24 H83         0.9800   -1.4260   -1.7020 HC         1 M5D      0.030396
@<TRIPOS>BOND
    1     1     2 1
    2     2     4 1
    3     2    15 1
    4     4     5 1
    5     4    13 1
    6     5     7 1
    7     7     8 1
    8     7     9 1
    9     9    10 1
   10     9    11 1
   11    11    13 1
   12    13    14 1
   13     1    17 1
   14     2     3 1
   15     5     6 1
   16     5    20 1
   17     7    21 1
   18     8    22 1
   19     8    23 1
   20     8    24 1
   21    11    12 1
   22    15    16 1
   23    15    18 1
   24    15    19 1
@<TRIPOS>SUBSTRUCTURE
      1 M5D               1 ****               0 ****  **** 
