@<TRIPOS>MOLECULE
modXNA-fragment:M5U:HEAD01:@N1:HEAD01STRIP:@C1',H1',O4',HHO4,C2',H2'1,H2'3,H2'2
   22    22     1     0     0
SMALL
USER_CHARGES


@<TRIPOS>ATOM
      1 O4'        -2.3730   -1.3170    0.9480 OH         1 M5U     -0.730545
      2 C1'        -2.1810   -0.1650    0.1800 CT         1 M5U      0.302463
      3 H1'        -2.5960    0.6980    0.6740 H2         1 M5U      0.059728
      4 N1         -0.7370    0.0520    0.1340 N*         1 M5U     -0.141364
      5 C6          0.1350   -1.0170    0.0340 CM         1 M5U     -0.106522
      6 H6         -0.3440   -1.9740    0.0430 H4         1 M5U      0.250623
      7 C5          1.4590   -0.8940   -0.0440 CM         1 M5U     -0.074331
      8 C8          2.4080   -2.0550   -0.1420 CT         1 M5U     -0.271656
      9 C4          2.0240    0.4570   -0.0230 C          1 M5U      0.592774
     10 O4          3.1900    0.7190   -0.0810 O          1 M5U     -0.592334
     11 N3          1.0800    1.4670    0.0710 NA         1 M5U     -0.725714
     12 H3          1.4260    2.4030    0.0750 H          1 M5U      0.400166
     13 C2         -0.2820    1.3460    0.1340 C          1 M5U      0.578042
     14 O2         -1.0060    2.3000    0.1760 O          1 M5U     -0.619467
     15 C2'        -2.7730   -0.3080   -1.2140 CT         1 M5U     -0.317826
     16 H2'1       -2.3360   -1.1560   -1.7300 HC         1 M5U      0.116991
     17 HHO4       -3.3020   -1.4770    1.0500 HO         1 M5U      0.472519
     18 H2'2       -3.8470   -0.4620   -1.1520 HC         1 M5U      0.116991
     19 H2'3       -2.5960    0.5920   -1.7900 HC         1 M5U      0.116991
     20 H81         1.8680   -2.9950   -0.1440 HC         1 M5U      0.116829
     21 H82         3.1000   -2.0590    0.6930 HC         1 M5U      0.116829
     22 H83         3.0000   -1.9950   -1.0480 HC         1 M5U      0.116829
@<TRIPOS>BOND
    1     1     2 1
    2     2     4 1
    3     2    15 1
    4     4     5 1
    5     4    13 1
    6     5     7 1
    7     7     8 1
    8     7     9 1
    9     9    10 1
   10     9    11 1
   11    11    13 1
   12    13    14 1
   13     1    17 1
   14     2     3 1
   15     5     6 1
   16     8    20 1
   17     8    21 1
   18     8    22 1
   19    11    12 1
   20    15    16 1
   21    15    18 1
   22    15    19 1
@<TRIPOS>SUBSTRUCTURE
      1 M5U               1 ****               0 ****  **** 
