@<TRIPOS>MOLECULE
modXNA-fragment:M6A:HEAD01:@N9:HEAD01STRIP:@C1',H1',O4',HHO4,C2',H2'1,H2'3,H2'2
   28    29     1     0     0
SMALL
USER_CHARGES


@<TRIPOS>ATOM
      1 O4'        -3.7940   -0.8910    0.7520 OH         1 M6A     -0.733550
      2 C1'        -3.0690    0.1710    0.2080 CT         1 M6A      0.312926
      3 H1'        -3.0600    1.0180    0.8820 H2         1 M6A      0.056955
      4 N9         -1.7010   -0.2960    0.1200 N*         1 M6A     -0.096204
      5 C8         -1.2530   -1.5800   -0.0450 CK         1 M6A      0.127564
      6 H8         -1.9360   -2.4010   -0.0840 H5         1 M6A      0.172977
      7 N7          0.0210   -1.6740   -0.1230 NB         1 M6A     -0.528158
      8 C5          0.4840   -0.3730   -0.0060 CB         1 M6A     -0.079141
      9 C6          1.7610    0.2350   -0.0200 CA         1 M6A      0.489502
     10 N6          2.9380   -0.4060   -0.1800 N2         1 M6A     -0.193297
     11 C11         4.1730    0.3550   -0.1100 CT         1 M6A     -0.106112
     12 C12         3.0830   -1.8420   -0.0230 CT         1 M6A     -0.106112
     13 N1          1.8040    1.5620    0.1130 NC         1 M6A     -0.796893
     14 C2          0.6840    2.2530    0.2400 CQ         1 M6A      0.500405
     15 H2          0.8100    3.3170    0.3360 H5         1 M6A      0.036578
     16 N3         -0.5500    1.8100    0.2650 NC         1 M6A     -0.803603
     17 C4         -0.5870    0.4870    0.1420 CB         1 M6A      0.380194
     18 C2'        -3.6080    0.5940   -1.1500 CT         1 M6A     -0.345216
     19 H2'1       -3.6030   -0.2470   -1.8340 HC         1 M6A      0.127451
     20 HHO4       -4.7160   -0.6750    0.7610 HO         1 M6A      0.473360
     21 H2'2       -4.6270    0.9590   -1.0540 HC         1 M6A      0.127451
     22 H2'3       -3.0030    1.3920   -1.5610 HC         1 M6A      0.127451
     23 1H11        4.9660   -0.2520   -0.5270 H1         1 M6A      0.080789
     24 2H11        4.4320    0.6110    0.9140 H1         1 M6A      0.080789
     25 3H11        4.0900    1.2680   -0.6770 H1         1 M6A      0.080789
     26 1H12        3.7920   -2.2080   -0.7560 H1         1 M6A      0.080789
     27 2H12        2.1440   -2.3430   -0.1700 H1         1 M6A      0.080789
     28 3H12        3.4620   -2.0860    0.9680 H1         1 M6A      0.080789
@<TRIPOS>BOND
    1     1     2 1
    2     2     4 1
    3     2    18 1
    4     4     5 1
    5     4    17 1
    6     5     7 1
    7     7     8 1
    8     8     9 1
    9     8    17 1
   10     9    10 1
   11     9    13 1
   12    10    11 1
   13    10    12 1
   14    13    14 1
   15    14    16 1
   16    16    17 1
   17     1    20 1
   18     2     3 1
   19     5     6 1
   20    11    23 1
   21    11    24 1
   22    11    25 1
   23    12    26 1
   24    12    27 1
   25    12    28 1
   26    14    15 1
   27    18    19 1
   28    18    21 1
   29    18    22 1
@<TRIPOS>SUBSTRUCTURE
      1 M6A               1 ****               0 ****  **** 
