@<TRIPOS>MOLECULE
modXNA-fragment:M6G:HEAD01:@N9:HEAD01STRIP:@C1',H1',O4',HHO4,C2',H2'1,H2'3,H2'2
   26    27     1     0     0
SMALL
USER_CHARGES


@<TRIPOS>ATOM
      1 O4'        -3.7550   -0.4720    0.8880 OH         1 M6G     -0.753176
      2 C1'        -2.8810    0.3400    0.1620 CT         1 M6G      0.332640
      3 H1'        -2.6870    1.2650    0.6890 H2         1 M6G      0.045199
      4 N9         -1.6250   -0.3740    0.1180 N*         1 M6G     -0.071292
      5 C8         -1.4260   -1.7390    0.0330 CK         1 M6G      0.209108
      6 H8         -2.2570   -2.4110    0.0450 H5         1 M6G      0.143359
      7 N7         -0.1970   -2.0790   -0.0340 NB         1 M6G     -0.614115
      8 C5          0.4920   -0.8800    0.0030 CB         1 M6G     -0.059873
      9 C6          1.8420   -0.5210   -0.0260 CA         1 M6G      0.588092
     10 O6          2.7610   -1.4550   -0.1050 OS         1 M6G     -0.343002
     11 N1          2.1890    0.7440    0.0270 NC         1 M6G     -0.622496
     12 C2          1.2260    1.6730    0.1040 CQ         1 M6G      0.747477
     13 N2          1.6580    2.9640    0.1090 N2         1 M6G     -0.980128
     14 H21         2.6130    3.1100    0.3450 H          1 M6G      0.406374
     15 H22         1.0070    3.6460    0.4250 H          1 M6G      0.406374
     16 N3         -0.0750    1.4720    0.1480 NC         1 M6G     -0.769874
     17 C4         -0.3850    0.1810    0.0970 CB         1 M6G      0.260290
     18 C2'        -3.4100    0.6390   -1.2340 CT         1 M6G     -0.352743
     19 H2'1       -3.5880   -0.2840   -1.7750 HC         1 M6G      0.127586
     20 HHO4       -4.6280   -0.1050    0.8600 HO         1 M6G      0.478746
     21 H2'2       -4.3430    1.1940   -1.1750 HC         1 M6G      0.127586
     22 H2'3       -2.6960    1.2400   -1.7840 HC         1 M6G      0.127586
     23 C24         4.1230   -1.0790   -0.1400 CT         1 M6G     -0.037252
     24 1H24        4.6730   -2.0040   -0.2140 H1         1 M6G      0.089047
     25 2H24        4.3980   -0.5510    0.7610 H1         1 M6G      0.089047
     26 3H24        4.3260   -0.4530   -0.9970 H1         1 M6G      0.089047
@<TRIPOS>BOND
    1     1     2 1
    2     2     4 1
    3     2    18 1
    4     4     5 1
    5     4    17 1
    6     5     7 1
    7     7     8 1
    8     8     9 1
    9     8    17 1
   10     9    10 1
   11     9    11 1
   12    10    23 1
   13    11    12 1
   14    12    13 1
   15    12    16 1
   16    16    17 1
   17     1    20 1
   18     2     3 1
   19     5     6 1
   20    13    14 1
   21    13    15 1
   22    18    19 1
   23    18    21 1
   24    18    22 1
   25    23    24 1
   26    23    25 1
   27    23    26 1
@<TRIPOS>SUBSTRUCTURE
      1 M6G               1 ****               0 ****  **** 
