@<TRIPOS>MOLECULE
modXNA-fragment:M6U:HEAD01:@N1:HEAD01STRIP:@C1',H1',C2',H2'1,H2'2,H2'3,O4',HHO4
   22    22     1     0     0
SMALL
USER_CHARGES


@<TRIPOS>ATOM
      1 C1'        -1.4190   -1.2760   -0.4160 CT         1 M6U      0.348668
      2 C2'        -2.0860   -1.8670    0.8120 CT         1 M6U     -0.417846
      3 O4'        -2.2180   -0.3820   -1.1080 OH         1 M6U     -0.710830
      4 O4          3.5690    0.9630    0.1090 O          1 M6U     -0.590448
      5 C4          2.4570    0.5360    0.0690 C          1 M6U      0.626750
      6 N3          2.2010   -0.8200    0.0180 NA         1 M6U     -0.656670
      7 C2          0.9840   -1.4410   -0.0730 C          1 M6U      0.569220
      8 O2          0.8910   -2.6310   -0.1540 O          1 M6U     -0.608602
      9 N1         -0.1200   -0.6110   -0.0770 N*         1 M6U     -0.168556
     10 C6          0.0420    0.7520    0.0340 CM         1 M6U     -0.015452
     11 C5          1.2380    1.3420    0.0850 CM         1 M6U     -0.358440
     12 H1'        -1.1480   -2.0590   -1.1010 H2         1 M6U      0.089141
     13 H2'1       -2.9970   -2.3740    0.5100 HC         1 M6U      0.154372
     14 H2'2       -1.4290   -2.5910    1.2730 HC         1 M6U      0.154372
     15 H3          2.9910   -1.4320    0.0160 H          1 M6U      0.382989
     16 C16        -1.1740    1.6270    0.2390 C          1 M6U      0.653214
     17 H5          1.3460    2.4000    0.2150 HA         1 M6U      0.203391
     18 H2'3       -2.3280   -1.0950    1.5310 HC         1 M6U      0.154372
     19 HHO4       -2.9000   -0.0430   -0.5410 HO         1 M6U      0.469925
     20 O8         -1.9760    1.4080    1.0800 O          1 M6U     -0.548072
     21 O9         -1.2350    2.7010   -0.5230 OH         1 M6U     -0.618766
     22 HO9        -0.5880    2.6880   -1.2180 HO         1 M6U      0.443231
@<TRIPOS>BOND
    1     1     2 1
    2     1     3 1
    3     1     9 1
    4     4     5 1
    5     5     6 1
    6     5    11 1
    7     6     7 1
    8     7     8 1
    9     7     9 1
   10     9    10 1
   11    10    11 1
   12    10    16 1
   13    16    20 1
   14    16    21 1
   15     1    12 1
   16     2    13 1
   17     2    14 1
   18     2    18 1
   19     3    19 1
   20     6    15 1
   21    11    17 1
   22    21    22 1
@<TRIPOS>SUBSTRUCTURE
      1 M6U               1 ****               0 ****  **** 
