@<TRIPOS>MOLECULE
modXNA-fragment:M7A:HEAD01:@N9:HEAD01STRIP:@C1',H1',O4',HHO4,C2',H2'1,H2'3,H2'2
   26    27     1     0     0
SMALL
USER_CHARGES


@<TRIPOS>ATOM
      1 O4'         3.1790   -0.0330    1.2290 OH         1 M7A     -0.747704
      2 C1'         2.5120   -0.5100    0.0920 CT         1 M7A      0.347233
      3 H1'         2.3760   -1.5810    0.1520 H2         1 M7A      0.022121
      4 N9          1.1940    0.0580    0.1220 N*         1 M7A     -0.123332
      5 C8          0.9140    1.4400    0.1650 C5         1 M7A     -0.112181
      6 N7         -0.5000    1.5820    0.2510 N*         1 M7A     -0.316687
      7 C5         -1.0200    0.2780    0.0760 CB         1 M7A     -0.204930
      8 C6         -2.2860   -0.2540    0.0850 CM         1 M7A      0.583897
      9 N6         -3.4330    0.4950    0.2190 N2         1 M7A     -0.908857
     10 H61        -4.2380   -0.0690    0.3870 H          1 M7A      0.386223
     11 H62        -3.3650    1.2700    0.8420 H          1 M7A      0.386223
     12 N1         -2.4460   -1.5770   -0.0810 NC         1 M7A     -0.797801
     13 C2         -1.3730   -2.3180   -0.1870 CQ         1 M7A      0.478073
     14 H2         -1.5370   -3.3720   -0.3200 H5         1 M7A      0.050143
     15 N3         -0.1050   -1.9310   -0.1350 NC         1 M7A     -0.820346
     16 C4          0.0290   -0.6300    0.0090 CB         1 M7A      0.510872
     17 C2'         3.2660   -0.1510   -1.1830 CT         1 M7A     -0.252382
     18 H2'1        3.3820    0.9230   -1.2660 HC         1 M7A      0.086185
     19 HHO4        4.0760   -0.3400    1.2220 HO         1 M7A      0.463015
     20 H2'2        4.2540   -0.6050   -1.1790 HC         1 M7A      0.086185
     21 H2'3        2.7320   -0.5160   -2.0520 HC         1 M7A      0.086185
     22 H8          1.5350    2.0600    0.7880 H5         1 M7A      0.199788
     23 C11        -1.0490    2.6770   -0.5340 CT         1 M7A     -0.035805
     24 1H11       -0.5440    3.5920   -0.2530 H1         1 M7A      0.072896
     25 2H11       -2.1030    2.7950   -0.3280 H1         1 M7A      0.072896
     26 3H11       -0.9240    2.5220   -1.6030 H1         1 M7A      0.072896
@<TRIPOS>BOND
    1     1     2 1
    2     2     4 1
    3     2    17 1
    4     4     5 1
    5     4    16 1
    6     5     6 1
    7     6     7 1
    8     6    23 1
    9     7     8 1
   10     7    16 1
   11     8     9 1
   12     8    12 1
   13    12    13 1
   14    13    15 1
   15    15    16 1
   16     1    19 1
   17     2     3 1
   18     5    22 1
   19     9    10 1
   20     9    11 1
   21    13    14 1
   22    17    18 1
   23    17    20 1
   24    17    21 1
   25    23    24 1
   26    23    25 1
   27    23    26 1
@<TRIPOS>SUBSTRUCTURE
      1 M7A               1 ****               0 ****  **** 
