@<TRIPOS>MOLECULE
modXNA-fragment:M7G:HEAD01:@N9:HEAD01STRIP:@C1',H1',O4',HHO4,C2',H2'1,H2'3,H2'2
   27    28     1     0     0
SMALL
USER_CHARGES


@<TRIPOS>ATOM
      1 O4'         3.2180   -0.6730    1.2040 OH         1 M7G     -0.762196
      2 C1'         2.4490   -0.9070    0.0540 CT         1 M7G      0.397010
      3 H1'         2.0270   -1.9010    0.0810 H2         1 M7G     -0.004384
      4 N9          1.3410    0.0010    0.1040 N*         1 M7G     -0.025172
      5 C8          1.4580    1.4140    0.0830 CR         1 M7G     -0.173116
      6 H8          2.2550    1.8520    0.6600 H5         1 M7G      0.203265
      7 N7          0.1510    1.9210    0.2470 N*         1 M7G     -0.259146
      8 C5         -0.7130    0.8150    0.0820 CB         1 M7G     -0.116899
      9 C6         -2.1240    0.7380    0.0890 C          1 M7G      0.528799
     10 O6         -2.9620    1.6010    0.1440 O          1 M7G     -0.606843
     11 N1         -2.5430   -0.6120   -0.0090 NA         1 M7G     -0.570738
     12 H1         -3.5310   -0.7290   -0.0880 H          1 M7G      0.411664
     13 C2         -1.7230   -1.6830   -0.0530 CA         1 M7G      0.705082
     14 N2         -2.3140   -2.9050   -0.1770 N2         1 M7G     -0.968457
     15 H21        -3.2180   -3.0280    0.2210 H          1 M7G      0.410955
     16 H22        -1.6910   -3.6680   -0.0320 H          1 M7G      0.410955
     17 N3         -0.4350   -1.5980   -0.0200 NC         1 M7G     -0.735466
     18 C4          0.0290   -0.3280    0.0470 CB         1 M7G      0.298381
     19 C2'         3.2820   -0.7300   -1.2100 CT         1 M7G     -0.278364
     20 H2'1        3.6950    0.2710   -1.2590 HC         1 M7G      0.088992
     21 HHO4        4.0180   -1.1780    1.1580 HO         1 M7G      0.458652
     22 H2'2        4.1030   -1.4430   -1.2250 HC         1 M7G      0.088992
     23 H2'3        2.6730   -0.9000   -2.0900 HC         1 M7G      0.088992
     24 C24        -0.1670    3.1930   -0.3690 CT         1 M7G     -0.061886
     25 1H24        0.5540    3.9300   -0.0380 H1         1 M7G      0.080316
     26 2H24       -1.1520    3.5020   -0.0570 H1         1 M7G      0.080316
     27 3H24       -0.1380    3.1440   -1.4570 H1         1 M7G      0.080316
@<TRIPOS>BOND
    1     1     2 1
    2     2     4 1
    3     2    19 1
    4     4     5 1
    5     4    18 1
    6     5     7 1
    7     7     8 1
    8     7    24 1
    9     8     9 1
   10     8    18 1
   11     9    10 1
   12     9    11 1
   13    11    13 1
   14    13    14 1
   15    13    17 1
   16    17    18 1
   17     1    21 1
   18     2     3 1
   19     5     6 1
   20    11    12 1
   21    14    15 1
   22    14    16 1
   23    19    20 1
   24    19    22 1
   25    19    23 1
   26    24    25 1
   27    24    26 1
   28    24    27 1
@<TRIPOS>SUBSTRUCTURE
      1 M7G               1 ****               0 ****  **** 
