@<TRIPOS>MOLECULE
modXNA-fragment:M7I:HEAD01:@N9:HEAD01STRIP:@C1',H1',O4',HHO4,C2',H2'1,H2'3,H2'2
   25    26     1     0     0
SMALL
USER_CHARGES


@<TRIPOS>ATOM
      1 O4'         2.8810   -0.1630    1.3300 OH         1 M7I     -0.699144
      2 C1'         2.4670   -0.5590    0.0450 CT         1 M7I      0.420371
      3 H1'         2.3180   -1.6290    0.0180 H2         1 M7I      0.004464
      4 N9          1.1870    0.0320   -0.1950 N*         1 M7I     -0.221836
      5 C8          0.9570    1.4290   -0.3130 CR         1 M7I     -0.192411
      6 H8          1.5620    2.0810    0.2990 H5         1 M7I      0.220364
      7 N7         -0.4420    1.6080   -0.2950 N*         1 M7I     -0.205228
      8 C5         -1.0060    0.3350   -0.1100 CB         1 M7I     -0.151080
      9 C6         -2.3690   -0.0690   -0.0850 C          1 M7I      0.525799
     10 O6         -3.3760    0.5890   -0.1380 O          1 M7I     -0.597740
     11 N1         -2.4520   -1.4680    0.0470 NA         1 M7I     -0.658953
     12 C2         -1.3980   -2.3060    0.0900 CA         1 M7I      0.371673
     13 H2         -1.6320   -3.3510    0.1760 H5         1 M7I      0.102981
     14 N3         -0.1740   -1.9400    0.0340 NC         1 M7I     -0.741970
     15 C4         -0.0130   -0.5930   -0.0640 CB         1 M7I      0.498530
     16 C2'         3.4840   -0.1490   -1.0110 CT         1 M7I     -0.375923
     17 H2'1        3.6370    0.9240   -1.0020 HC         1 M7I      0.128315
     18 HHO4        3.7320   -0.5340    1.5180 HO         1 M7I      0.422355
     19 H2'2        4.4390   -0.6310   -0.8180 HC         1 M7I      0.128315
     20 H2'3        3.1470   -0.4460   -1.9970 HC         1 M7I      0.128315
     21 C8         -0.9990    2.7720    0.3630 CT         1 M7I     -0.048981
     22 H1         -3.3790   -1.8340    0.0820 H          1 M7I      0.382500
     23 H81        -0.5330    3.6600   -0.0440 H1         1 M7I      0.076115
     24 H82        -0.8370    2.7520    1.4400 H1         1 M7I      0.076115
     25 H83        -2.0590    2.8150    0.1680 H1         1 M7I      0.076115
@<TRIPOS>BOND
    1     1     2 1
    2     2     4 1
    3     2    16 1
    4     4     5 1
    5     4    15 1
    6     5     7 1
    7     7     8 1
    8     7    21 1
    9     8     9 1
   10     8    15 1
   11     9    10 1
   12     9    11 1
   13    11    12 1
   14    12    14 1
   15    14    15 1
   16     1    18 1
   17     2     3 1
   18     5     6 1
   19    11    22 1
   20    12    13 1
   21    16    17 1
   22    16    19 1
   23    16    20 1
   24    21    23 1
   25    21    24 1
   26    21    25 1
@<TRIPOS>SUBSTRUCTURE
      1 M7I               1 ****               0 ****  **** 
