@<TRIPOS>MOLECULE
modXNA-fragment:M8A:HEAD01:@N9:HEAD01STRIP:@C1',H1',O4',HHO4,C2',H2'1,H2'3,H2'2
   25    26     1     0     0
SMALL
USER_CHARGES


@<TRIPOS>ATOM
      1 O4'        -2.9740   -0.3510   -1.0990 OH         1 M8A     -0.734800
      2 C1'        -2.1270   -0.9040   -0.1340 CT         1 M8A      0.415259
      3 H1'        -1.7610   -1.8680   -0.4600 H2         1 M8A      0.035431
      4 N9         -0.9500   -0.0640   -0.0620 N*         1 M8A     -0.296681
      5 C8         -0.8320    1.3170    0.0190 CK         1 M8A      0.448512
      6 C9         -1.9970    2.2550    0.0260 CT         1 M8A     -0.305052
      7 N7          0.3900    1.7070    0.0690 NB         1 M8A     -0.631695
      8 C5          1.1420    0.5510    0.0220 CB         1 M8A     -0.113484
      9 C6          2.5160    0.3020    0.0350 CA         1 M8A      0.649460
     10 N6          3.4290    1.2880    0.1460 N2         1 M8A     -0.972373
     11 H61         4.3790    1.0580   -0.0390 H          1 M8A      0.421473
     12 H62         3.1380    2.2280    0.0020 H          1 M8A      0.421473
     13 N1          2.9370   -0.9550   -0.0400 NC         1 M8A     -0.832679
     14 C2          2.0320   -1.9210   -0.1140 CQ         1 M8A      0.479630
     15 H2          2.4280   -2.9190   -0.1700 H5         1 M8A      0.049535
     16 N3          0.7220   -1.8170   -0.1280 NC         1 M8A     -0.785353
     17 C4          0.3270   -0.5510   -0.0640 CB         1 M8A      0.397188
     18 C2'        -2.8180   -1.0590    1.2140 CT         1 M8A     -0.357016
     19 H2'1       -2.1300   -1.4750    1.9410 HC         1 M8A      0.121296
     20 HHO4       -3.7290   -0.9120   -1.2140 HO         1 M8A      0.456371
     21 H2'2       -3.1850   -0.1070    1.5790 HC         1 M8A      0.121296
     22 H2'3       -3.6630   -1.7360    1.1240 HC         1 M8A      0.121296
     23 H91        -1.6100    3.2590    0.1220 HC         1 M8A      0.127024
     24 H92        -2.6660    2.0580    0.8560 HC         1 M8A      0.127024
     25 H93        -2.5690    2.1690   -0.8880 HC         1 M8A      0.127024
@<TRIPOS>BOND
    1     1     2 1
    2     2     4 1
    3     2    18 1
    4     4     5 1
    5     4    17 1
    6     5     6 1
    7     5     7 1
    8     7     8 1
    9     8     9 1
   10     8    17 1
   11     9    10 1
   12     9    13 1
   13    13    14 1
   14    14    16 1
   15    16    17 1
   16     1    20 1
   17     2     3 1
   18     6    23 1
   19     6    24 1
   20     6    25 1
   21    10    11 1
   22    10    12 1
   23    14    15 1
   24    18    19 1
   25    18    21 1
   26    18    22 1
@<TRIPOS>SUBSTRUCTURE
      1 M8A               1 ****               0 ****  **** 
