@<TRIPOS>MOLECULE
modXNA-fragment:MCU:HEAD01:@N1:HEAD01STRIP:@C1',H1',O4',HHO4,C2',H2'1,H2'3,H2'2
   28    28     1     0     0
SMALL
USER_CHARGES


@<TRIPOS>ATOM
      1 O4'        -2.6730   -2.1690    0.7540 OH         1 MCU     -0.682081
      2 C1'        -3.0260   -0.9860    0.1200 CT         1 MCU      0.365668
      3 H1'        -3.7610   -0.4380    0.6850 H2         1 MCU      0.031522
      4 N1         -1.8500   -0.0990    0.0360 N*         1 MCU     -0.208420
      5 C6         -0.6150   -0.6230   -0.2820 CM         1 MCU     -0.089297
      6 H6         -0.6080   -1.6890   -0.3910 H4         1 MCU      0.224376
      7 C5          0.4880    0.1080   -0.4140 CM         1 MCU     -0.201058
      8 C8          1.8490   -0.4500   -0.7010 CT         1 MCU     -0.077621
      9 C4          0.3910    1.5530   -0.2080 C          1 MCU      0.625640
     10 O4          1.3060    2.3180   -0.3030 O          1 MCU     -0.598243
     11 N3         -0.8820    1.9960    0.0990 NA         1 MCU     -0.698975
     12 H3         -0.9930    2.9770    0.2470 H          1 MCU      0.387302
     13 C2         -2.0240    1.2500    0.2270 C          1 MCU      0.586957
     14 O2         -3.0830    1.7490    0.4780 O          1 MCU     -0.615896
     15 C2'        -3.5680   -1.3340   -1.2520 CT         1 MCU     -0.256617
     16 H2'1       -2.8240   -1.8670   -1.8350 HC         1 MCU      0.103786
     17 HHO4       -2.5160   -2.0100    1.6770 HO         1 MCU      0.432869
     18 H2'2       -4.4390   -1.9690   -1.1480 HC         1 MCU      0.103786
     19 H2'3       -3.8500   -0.4310   -1.7800 HC         1 MCU      0.103786
     20 H81         1.7740   -1.4500   -1.1200 HC         1 MCU      0.059066
     21 C9          2.6940   -0.5540    0.5650 C          1 MCU      0.637152
     22 H82         2.3410    0.1680   -1.4380 HC         1 MCU      0.059066
     23 O10         4.0070   -0.7110    0.4270 OS         1 MCU     -0.465292
     24 O12         2.2180   -0.5570    1.6490 O          1 MCU     -0.596301
     25 C11         4.6750   -0.6070   -0.8100 CT         1 MCU      0.089768
     26 1H11        5.7100   -0.8260   -0.6000 H1         1 MCU      0.049447
     27 2H11        4.6000    0.3940   -1.2150 H1         1 MCU      0.049447
     28 3H11        4.3030   -1.3250   -1.5300 H1         1 MCU      0.049447
@<TRIPOS>BOND
    1     1     2 1
    2     2     4 1
    3     2    15 1
    4     4     5 1
    5     4    13 1
    6     5     7 1
    7     7     8 1
    8     7     9 1
    9     8    21 1
   10     9    10 1
   11     9    11 1
   12    11    13 1
   13    13    14 1
   14    21    23 1
   15    21    24 1
   16    23    25 1
   17     1    17 1
   18     2     3 1
   19     5     6 1
   20     8    20 1
   21     8    22 1
   22    11    12 1
   23    15    16 1
   24    15    18 1
   25    15    19 1
   26    25    26 1
   27    25    27 1
   28    25    28 1
@<TRIPOS>SUBSTRUCTURE
      1 MCU               1 ****               0 ****  **** 
