@<TRIPOS>MOLECULE
modXNA-fragment:MCY:HEAD01:@C1:HEAD01STRIP:@C1',H1',O4',HHO4,C2',H2'1,H2'3,H2'2
   36    36     1     0     0
SMALL
USER_CHARGES


@<TRIPOS>ATOM
      1 O4'        -4.9560   -0.5220    0.1820 OH         1 MCY     -0.779210
      2 C1'        -3.7900   -1.2800   -0.0500 CT         1 MCY      0.422285
      3 H1'        -3.8550   -1.7690   -1.0170 H1         1 MCY     -0.016597
      4 C1         -2.6370   -0.3060   -0.1010 CM         1 MCY     -0.289704
      5 C6         -2.7360    0.9600    0.2940 CM         1 MCY     -0.010074
      6 N5         -1.6880    1.8480    0.2490 N*         1 MCY     -0.155383
      7 C8         -1.8310    3.2220    0.7190 CT         1 MCY     -0.141039
      8 C4         -0.4600    1.4730   -0.2160 C          1 MCY      0.562791
      9 O4          0.4670    2.2420   -0.2320 O          1 MCY     -0.604114
     10 N3         -0.3410    0.1790   -0.6660 N*         1 MCY     -0.436242
     11 C12         0.9740   -0.2080   -1.1850 CT         1 MCY      0.101802
     12 C2         -1.3580   -0.7720   -0.6300 C          1 MCY      0.554637
     13 O2         -1.1670   -1.8900   -1.0210 O          1 MCY     -0.562802
     14 C2'        -3.6100   -2.3440    1.0310 CT         1 MCY     -0.345396
     15 H2'1       -3.5610   -1.8770    2.0090 HC         1 MCY      0.115717
     16 HHO4       -5.6990   -1.1050    0.2470 HO         1 MCY      0.462708
     17 H2'2       -4.4510   -3.0350    1.0220 HC         1 MCY      0.115717
     18 H2'3       -2.7080   -2.9160    0.8610 HC         1 MCY      0.115717
     19 H81        -1.1790    3.4040    1.5610 H1         1 MCY      0.105306
     20 H82        -2.8570    3.3740    1.0190 H1         1 MCY      0.105306
     21 H83        -1.5810    3.9150   -0.0700 H1         1 MCY      0.105306
     22 C12         1.9660   -0.5560   -0.0670 CT         1 MCY     -0.173981
     23 1H12        1.3330    0.6170   -1.7790 H1         1 MCY      0.049434
     24 2H12        0.8210   -1.0560   -1.8300 H1         1 MCY      0.049434
     25 C14         3.4130   -0.2530   -0.4760 CT         1 MCY      0.193830
     26 1H12        1.8780   -1.6020    0.1930 HC         1 MCY      0.100088
     27 2H12        1.7390    0.0220    0.8230 HC         1 MCY      0.100088
     28 C16         4.3700   -0.9290    0.5140 C          1 MCY      0.574011
     29 N17         3.6640    1.1840   -0.5330 NT         1 MCY     -1.018099
     30 H14         3.6130   -0.7260   -1.4330 H1         1 MCY      0.020826
     31 O17         5.1280   -0.1090    1.2130 OH         1 MCY     -0.599508
     32 O18         4.4120   -2.1080    0.6380 O          1 MCY     -0.604437
     33 1H17        2.8290    1.7260   -0.4120 H          1 MCY      0.393606
     34 2H17        4.0990    1.4650   -1.3880 H          1 MCY      0.393606
     35 7HO1        4.9250    0.7840    0.9310 HO         1 MCY      0.404208
     36 H6         -3.6590    1.3520    0.6690 H4         1 MCY      0.232532
@<TRIPOS>BOND
    1     1     2 1
    2     2     4 1
    3     2    14 1
    4     4     5 1
    5     4    12 1
    6     5     6 1
    7     6     7 1
    8     6     8 1
    9     8     9 1
   10     8    10 1
   11    10    11 1
   12    10    12 1
   13    11    22 1
   14    12    13 1
   15    22    25 1
   16    25    28 1
   17    25    29 1
   18    28    31 1
   19    28    32 1
   20     1    16 1
   21     2     3 1
   22     5    36 1
   23     7    19 1
   24     7    20 1
   25     7    21 1
   26    11    23 1
   27    11    24 1
   28    14    15 1
   29    14    17 1
   30    14    18 1
   31    22    26 1
   32    22    27 1
   33    25    30 1
   34    29    33 1
   35    29    34 1
   36    31    35 1
@<TRIPOS>SUBSTRUCTURE
      1 MCY               1 ****               0 ****  **** 
