@<TRIPOS>MOLECULE
modXNA-fragment:MGU:HEAD01:@N1:HEAD01STRIP:@C1',H1',O4',HHO4,C2',H2'1,H2'3,H2'2
   53    53     1     0     0
SMALL
USER_CHARGES


@<TRIPOS>ATOM
      1 O4'        -3.9330    2.8110    0.8250 OH         1 MGU     -0.685102
      2 C1'        -2.9100    2.3570   -0.0090 CT         1 MGU      0.225636
      3 H1'        -1.9540    2.6240    0.4130 H2         1 MGU      0.084312
      4 N1         -2.9990    0.9000   -0.0010 N*         1 MGU     -0.186831
      5 C6         -4.2490    0.3140   -0.1480 CM         1 MGU     -0.028984
      6 H6         -5.0580    1.0100   -0.2010 H4         1 MGU      0.231032
      7 C5         -4.4220   -1.0020   -0.1870 CM         1 MGU     -0.160237
      8 C8         -5.7590   -1.6990   -0.3620 CT         1 MGU     -0.077038
      9 C4         -3.2260   -1.8550   -0.0810 C          1 MGU      0.661382
     10 O4         -3.2930   -3.0510   -0.1160 O          1 MGU     -0.646316
     11 N3         -2.0040   -1.2070    0.0580 NC         1 MGU     -0.697588
     12 C2         -1.9270    0.0620    0.0920 CA         1 MGU      0.442010
     13 S2         -0.3170    0.8040    0.2410 S          1 MGU     -0.302021
     14 C2'        -3.0310    2.9240   -1.4170 CT         1 MGU     -0.225096
     15 H2'1       -3.9860    2.6580   -1.8560 HC         1 MGU      0.088417
     16 HHO4       -3.9390    3.7590    0.8340 HO         1 MGU      0.460358
     17 H2'2       -2.9560    4.0070   -1.3920 HC         1 MGU      0.088417
     18 H2'3       -2.2360    2.5460   -2.0470 HC         1 MGU      0.088417
     19 N8         -6.9550   -0.8950   -0.2600 NT         1 MGU     -0.703954
     20 H81        -5.8200   -2.4950    0.3690 H1         1 MGU      0.154602
     21 H82        -5.7550   -2.1930   -1.3290 H1         1 MGU      0.154602
     22 H8         -6.9680   -0.1520   -0.9290 H          1 MGU      0.356182
     23 C11        -7.3150   -0.4370    1.0660 CT         1 MGU     -0.017030
     24 1H11       -8.2450    0.1170    1.0090 H1         1 MGU      0.067398
     25 2H11       -6.5720    0.1940    1.5540 H1         1 MGU      0.067398
     26 3H11       -7.4850   -1.2980    1.7030 H1         1 MGU      0.067398
     27 C13         0.7490   -0.6790    0.3750 CT         1 MGU     -0.019952
     28 C14         2.1490   -0.2220    0.6800 CM         1 MGU     -0.239370
     29 1H13        0.6640   -1.2420   -0.5380 H1         1 MGU      0.115863
     30 2H13        0.3560   -1.2880    1.1730 H1         1 MGU      0.115863
     31 C15         3.1560   -0.1080   -0.1750 CM         1 MGU      0.137450
     32 H14         2.3240    0.0270    1.7140 HA         1 MGU      0.171404
     33 C17         4.5230    0.3290    0.3120 CT         1 MGU     -0.234696
     34 C18         3.0510   -0.3970   -1.6550 CT         1 MGU     -0.171255
     35 C17         5.6020   -0.7650    0.1910 CT         1 MGU      0.055697
     36 1H17        4.4530    0.6420    1.3480 HC         1 MGU      0.115204
     37 2H17        4.8460    1.1980   -0.2560 HC         1 MGU      0.115204
     38 1H18        3.5250   -1.3430   -1.9020 HC         1 MGU      0.080700
     39 2H18        3.5620    0.3740   -2.2230 HC         1 MGU      0.080700
     40 3H18        2.0280   -0.4380   -2.0030 HC         1 MGU      0.080700
     41 C22         6.9110   -0.3240    0.7930 CM         1 MGU     -0.386368
     42 1H17        5.7240   -1.0520   -0.8460 HC         1 MGU      0.054078
     43 2H17        5.2540   -1.6510    0.7170 HC         1 MGU      0.054078
     44 C24         8.0700   -0.0950    0.1920 CM         1 MGU      0.220690
     45 H22         6.8710   -0.1730    1.8620 HA         1 MGU      0.197153
     46 C26         8.3330   -0.2410   -1.2870 CT         1 MGU     -0.245849
     47 C27         9.2770    0.3490    0.9850 CT         1 MGU     -0.245849
     48 1H26        9.1100   -0.9820   -1.4620 HC         1 MGU      0.089788
     49 2H26        8.6970    0.6980   -1.6980 HC         1 MGU      0.089788
     50 3H26        7.4610   -0.5340   -1.8540 HC         1 MGU      0.089788
     51 1H27       10.0960   -0.3580    0.8710 HC         1 MGU      0.089788
     52 2H27        9.0560    0.4400    2.0420 HC         1 MGU      0.089788
     53 3H27        9.6410    1.3110    0.6310 HC         1 MGU      0.089788
@<TRIPOS>BOND
    1     1     2 1
    2     2     4 1
    3     2    14 1
    4     4     5 1
    5     4    12 1
    6     5     7 1
    7     7     8 1
    8     7     9 1
    9     8    19 1
   10     9    10 1
   11     9    11 1
   12    11    12 1
   13    12    13 1
   14    13    27 1
   15    19    23 1
   16    27    28 1
   17    28    31 1
   18    31    33 1
   19    31    34 1
   20    33    35 1
   21    35    41 1
   22    41    44 1
   23    44    46 1
   24    44    47 1
   25     1    16 1
   26     2     3 1
   27     5     6 1
   28     8    20 1
   29     8    21 1
   30    14    15 1
   31    14    17 1
   32    14    18 1
   33    19    22 1
   34    23    24 1
   35    23    25 1
   36    23    26 1
   37    27    29 1
   38    27    30 1
   39    28    32 1
   40    33    36 1
   41    33    37 1
   42    34    38 1
   43    34    39 1
   44    34    40 1
   45    35    42 1
   46    35    43 1
   47    41    45 1
   48    46    48 1
   49    46    49 1
   50    46    50 1
   51    47    51 1
   52    47    52 1
   53    47    53 1
@<TRIPOS>SUBSTRUCTURE
      1 MGU               1 ****               0 ****  **** 
