@<TRIPOS>MOLECULE
modXNA-fragment:MMU:HEAD01:@N1:HEAD01STRIP:@C1',H1',O4',HHO4,C2',H2'1,H2'3,H2'2
   28    28     1     0     0
SMALL
USER_CHARGES


@<TRIPOS>ATOM
      1 O4'        -2.2180   -2.3650    1.0070 OH         1 MMU     -0.708923
      2 C1'        -2.7000   -1.2690    0.3090 CT         1 MMU      0.406501
      3 H1'        -3.4030   -0.7070    0.8960 H2         1 MMU     -0.025717
      4 N1         -1.5730   -0.3390    0.0240 N*         1 MMU      0.202909
      5 C6         -0.3760   -0.9030   -0.3900 CM         1 MMU     -0.300338
      6 H6         -0.3850   -1.9740   -0.4040 H4         1 MMU      0.252252
      7 C5          0.7040   -0.2030   -0.7190 CM         1 MMU      0.153297
      8 C8          1.9990   -0.8110   -1.1760 CT         1 MMU     -0.514572
      9 C4          0.6190    1.2520   -0.6400 C          1 MMU      0.405905
     10 O4          1.5020    2.0120   -0.9010 O          1 MMU     -0.533339
     11 N3         -0.6190    1.7190   -0.2220 NA         1 MMU     -0.150886
     12 H3         -0.7140    2.7120   -0.1660 H          1 MMU      0.258409
     13 C2         -1.7210    1.0030    0.1010 C          1 MMU     -0.072887
     14 S2         -3.1270    1.8020    0.5480 S          1 MMU     -0.381224
     15 C2'        -3.3430   -1.7570   -0.9720 CT         1 MMU     -0.210552
     16 H2'1       -2.6330   -2.3130   -1.5740 HC         1 MMU      0.085002
     17 HHO4       -2.0550   -2.1300    1.9110 HO         1 MMU      0.434811
     18 H2'2       -4.1690   -2.4130   -0.7280 HC         1 MMU      0.085002
     19 H2'3       -3.7160   -0.9180   -1.5460 HC         1 MMU      0.085002
     20 H81         1.9030   -1.8910   -1.2270 HC         1 MMU      0.209877
     21 C9          3.2000   -0.5180   -0.2960 C          1 MMU      0.727926
     22 H82         2.2600   -0.4650   -2.1670 HC         1 MMU      0.209877
     23 O10         4.3160   -0.5510   -0.6970 O          1 MMU     -0.615281
     24 O11         2.8750   -0.2850    0.9630 OS         1 MMU     -0.435121
     25 C10         3.9400    0.0150    1.8520 CT         1 MMU     -0.014561
     26 1H10        3.4810    0.1930    2.8110 H1         1 MMU      0.087748
     27 2H10        4.6270   -0.8160    1.9110 H1         1 MMU      0.087748
     28 3H10        4.4670    0.8960    1.5180 H1         1 MMU      0.087748
@<TRIPOS>BOND
    1     1     2 1
    2     2     4 1
    3     2    15 1
    4     4     5 1
    5     4    13 1
    6     5     7 1
    7     7     8 1
    8     7     9 1
    9     8    21 1
   10     9    10 1
   11     9    11 1
   12    11    13 1
   13    13    14 1
   14    21    23 1
   15    21    24 1
   16    24    25 1
   17     1    17 1
   18     2     3 1
   19     5     6 1
   20     8    20 1
   21     8    22 1
   22    11    12 1
   23    15    16 1
   24    15    18 1
   25    15    19 1
   26    25    26 1
   27    25    27 1
   28    25    28 1
@<TRIPOS>SUBSTRUCTURE
      1 MMU               1 ****               0 ****  **** 
