@<TRIPOS>MOLECULE
modXNA-fragment:MNU:HEAD01:@N1:HEAD01STRIP:@C1',H1',O4',HHO4,C2',H2'1,H2'3,H2'2
   27    27     1     0     0
SMALL
USER_CHARGES


@<TRIPOS>ATOM
      1 O4'        -2.1890   -2.0410    0.6700 OH         1 MNU     -0.718727
      2 C1'        -2.5280   -0.7630    0.2200 CT         1 MNU      0.273522
      3 H1'        -3.1030   -0.2350    0.9630 H2         1 MNU      0.064207
      4 N1         -1.2660   -0.0340    0.0950 N*         1 MNU     -0.140585
      5 C6         -0.1230   -0.6690   -0.3530 CM         1 MNU     -0.051636
      6 H6         -0.2510   -1.7140   -0.5480 H4         1 MNU      0.235022
      7 C5          1.0510   -0.0630   -0.5220 CM         1 MNU     -0.233136
      8 C8          2.2980   -0.7630   -1.0250 CT         1 MNU     -0.093877
      9 C4          1.1340    1.3640   -0.2050 C          1 MNU      0.723522
     10 O4          2.1210    2.0370   -0.2970 O          1 MNU     -0.631919
     11 N3         -0.0560    1.9230    0.2270 NA         1 MNU     -0.823992
     12 H3         -0.0430    2.8990    0.4380 H          1 MNU      0.411942
     13 C2         -1.2690    1.3070    0.3810 C          1 MNU      0.624096
     14 O2         -2.2480    1.9040    0.7310 O          1 MNU     -0.626108
     15 C2'        -3.2850   -0.8060   -1.0980 CT         1 MNU     -0.269076
     16 H2'1       -2.6970   -1.3080   -1.8600 HC         1 MNU      0.101092
     17 HHO4       -2.9780   -2.5480    0.8050 HO         1 MNU      0.470796
     18 H2'2       -4.2200   -1.3460   -0.9770 HC         1 MNU      0.101092
     19 H2'3       -3.5170    0.1980   -1.4300 HC         1 MNU      0.101092
     20 H81         2.0360   -1.7800   -1.3030 H1         1 MNU      0.144725
     21 N9          3.4200   -0.8130   -0.1130 NT         1 MNU     -0.707386
     22 H82         2.6360   -0.2650   -1.9260 H1         1 MNU      0.144725
     23 C10         3.1890   -1.5310    1.1220 CT         1 MNU      0.029205
     24 H9          3.7410    0.1170    0.0700 H          1 MNU      0.398407
     25 1H10        4.0980   -1.5240    1.7110 H1         1 MNU      0.052127
     26 2H10        2.9510   -2.5660    0.8980 H1         1 MNU      0.052127
     27 3H10        2.3830   -1.1290    1.7370 H1         1 MNU      0.052127
@<TRIPOS>BOND
    1     1     2 1
    2     2     4 1
    3     2    15 1
    4     4     5 1
    5     4    13 1
    6     5     7 1
    7     7     8 1
    8     7     9 1
    9     8    21 1
   10     9    10 1
   11     9    11 1
   12    11    13 1
   13    13    14 1
   14    21    23 1
   15     1    17 1
   16     2     3 1
   17     5     6 1
   18     8    20 1
   19     8    22 1
   20    11    12 1
   21    15    16 1
   22    15    18 1
   23    15    19 1
   24    21    24 1
   25    23    25 1
   26    23    26 1
   27    23    27 1
@<TRIPOS>SUBSTRUCTURE
      1 MNU               1 ****               0 ****  **** 
