@<TRIPOS>MOLECULE
modXNA-fragment:MOU:HEAD01:@N1:HEAD01STRIP:@C1',H1',O4',HHO4,C2',H2'1,H2'3,H2'2
   23    23     1     0     0
SMALL
USER_CHARGES


@<TRIPOS>ATOM
      1 O4'         2.4390   -1.4930   -1.0360 OH         1 MOU     -0.725762
      2 C1'         2.3960   -0.4240   -0.1380 CT         1 MOU      0.313741
      3 H1'         2.9990    0.3970   -0.4890 H2         1 MOU      0.060324
      4 N1          1.0160    0.0550   -0.1520 N*         1 MOU     -0.198545
      5 C6         -0.0390   -0.8360   -0.2490 CM         1 MOU     -0.066145
      6 H6          0.2340   -1.8630   -0.3670 H4         1 MOU      0.243540
      7 C5         -1.3130   -0.4610   -0.2450 CM         1 MOU     -0.006561
      8 O5         -2.3070   -1.3590   -0.4240 OS         1 MOU     -0.354100
      9 C4         -1.6410    0.9640   -0.1300 C          1 MOU      0.601928
     10 O4         -2.7400    1.4320   -0.1190 O          1 MOU     -0.574215
     11 N3         -0.5210    1.7700   -0.0180 NA         1 MOU     -0.763806
     12 H3         -0.6870    2.7500    0.0730 H          1 MOU      0.405567
     13 C2          0.8000    1.4010   -0.0110 C          1 MOU      0.612511
     14 O2          1.6820    2.2020    0.1200 O          1 MOU     -0.624585
     15 C2'         2.8330   -0.8380    1.2590 CT         1 MOU     -0.327878
     16 H2'1        2.2080   -1.6420    1.6320 HC         1 MOU      0.119165
     17 HHO4        3.3270   -1.8180   -1.0990 HO         1 MOU      0.471142
     18 H2'2        3.8630   -1.1840    1.2430 HC         1 MOU      0.119165
     19 H2'3        2.7720    0.0050    1.9360 HC         1 MOU      0.119165
     20 C8         -3.1480   -1.5870    0.6870 CT         1 MOU      0.008591
     21 H81        -3.8540   -2.3450    0.3830 H1         1 MOU      0.069321
     22 H82        -3.6780   -0.6870    0.9640 H1         1 MOU      0.069321
     23 H83        -2.5710   -1.9510    1.5320 H1         1 MOU      0.069321
@<TRIPOS>BOND
    1     1     2 1
    2     2     4 1
    3     2    15 1
    4     4     5 1
    5     4    13 1
    6     5     7 1
    7     7     8 1
    8     7     9 1
    9     8    20 1
   10     9    10 1
   11     9    11 1
   12    11    13 1
   13    13    14 1
   14     1    17 1
   15     2     3 1
   16     5     6 1
   17    11    12 1
   18    15    16 1
   19    15    18 1
   20    15    19 1
   21    20    21 1
   22    20    22 1
   23    20    23 1
@<TRIPOS>SUBSTRUCTURE
      1 MOU               1 ****               0 ****  **** 
