@<TRIPOS>MOLECULE
modXNA-fragment:MQG:HEAD01:@N9:HEAD01STRIP:@C1',H1',O4',HHO4,C2',H2'1,H2'3,H2'2
   63    66     1     0     0
SMALL
USER_CHARGES


@<TRIPOS>ATOM
      1 O4'         6.0200   -3.1560   -0.6710 OH         1 MQG     -0.745756
      2 C1'         6.2350   -1.8700   -0.1640 CT         1 MQG      0.423842
      3 H1'         6.8270   -1.2820   -0.8510 H2         1 MQG     -0.008121
      4 N9          4.9410   -1.2350   -0.1020 N*         1 MQG     -0.028610
      5 C8          3.7940   -1.7810    0.4690 CA         1 MQG     -0.250408
      6 H8          3.8120   -2.7800    0.8490 H4         1 MQG      0.235793
      7 C7          2.7790   -0.9010    0.3960 C*         1 MQG      0.021771
      8 C5          3.3220    0.2650   -0.2540 CB         1 MQG     -0.346811
      9 C6          2.7960    1.5450   -0.6000 C          1 MQG      0.723214
     10 O6          1.6950    1.9980   -0.4110 O          1 MQG     -0.695226
     11 N1          3.7620    2.3440   -1.2340 NA         1 MQG     -0.654583
     12 H1          3.4660    3.2760   -1.4310 H          1 MQG      0.434158
     13 C2          5.0500    1.9770   -1.4660 CA         1 MQG      0.751502
     14 N2          5.8470    2.9230   -2.0400 N2         1 MQG     -0.984309
     15 H21         5.4240    3.5650   -2.6730 H          1 MQG      0.413001
     16 H22         6.7300    2.5720   -2.3420 H          1 MQG      0.413001
     17 N3          5.5380    0.8320   -1.1450 NC         1 MQG     -0.772856
     18 C4          4.6470    0.0040   -0.5360 CB         1 MQG      0.348475
     19 C2'         6.9120   -1.9110    1.2000 CT         1 MQG     -0.340758
     20 H2'1        6.3150   -2.4780    1.9050 HC         1 MQG      0.117504
     21 HHO4        6.8290   -3.6480   -0.6400 HO         1 MQG      0.455708
     22 H2'2        7.8900   -2.3790    1.1230 HC         1 MQG      0.117504
     23 H2'3        7.0480   -0.9070    1.5830 HC         1 MQG      0.117504
     24 C24         1.3610   -1.1050    0.8430 CT         1 MQG      0.069104
     25 N10         0.9760   -0.1400    1.8590 NT         1 MQG     -0.771129
     26 1H24        0.7140   -1.0690   -0.0360 H1         1 MQG      0.053936
     27 2H24        1.2630   -2.1010    1.2620 H1         1 MQG      0.053936
     28 C28        -0.4270   -0.1730    2.2320 CT         1 MQG      0.336251
     29 C29        -1.4220    0.4020    1.1910 CT         1 MQG     -0.080072
     30 C30        -1.7250    1.8470    1.6680 CT         1 MQG      0.302224
     31 C31        -1.3490    1.7970    3.1310 CM         1 MQG     -0.182050
     32 C32        -0.6580    0.7160    3.4320 CM         1 MQG     -0.259388
     33 H10         1.2240    0.7830    1.5600 H          1 MQG      0.362505
     34 H28        -0.6890   -1.2050    2.4380 H1         1 MQG      0.047628
     35 H29        -1.0290    0.3860    0.1860 H1         1 MQG      0.167309
     36 O15        -2.6190   -0.3590    1.2520 OS         1 MQG     -0.452642
     37 H30        -1.0970    2.5530    1.1390 H1         1 MQG      0.083340
     38 O17        -3.0430    2.2660    1.4420 OH         1 MQG     -0.714569
     39 H31        -1.6060    2.5940    3.8050 HA         1 MQG      0.157199
     40 H32        -0.2360    0.4820    4.3920 HA         1 MQG      0.176894
     41 7HO1       -3.6150    1.5280    1.6060 HO         1 MQG      0.477716
     42 C42        -3.1740   -0.7820    0.0540 CT         1 MQG      0.125656
     43 O43        -3.3240    0.3340   -0.7650 OS         1 MQG     -0.373173
     44 C44        -4.3380    0.4010   -1.7430 CT         1 MQG     -0.006313
     45 C45        -4.9250   -0.9710   -2.0440 CT         1 MQG      0.010613
     46 C46        -5.4350   -1.6750   -0.7880 CT         1 MQG      0.287283
     47 C47        -4.4900   -1.4760    0.4160 CT         1 MQG      0.275939
     48 H42        -2.5060   -1.4850   -0.4320 H2         1 MQG      0.091303
     49 C22        -5.3460    1.4630   -1.3140 CT         1 MQG      0.151685
     50 H44        -3.8560    0.7700   -2.6440 H1         1 MQG      0.121465
     51 H45        -5.7410   -0.8740   -2.7550 H1         1 MQG      0.076484
     52 O25        -3.9310   -1.8230   -2.5790 OH         1 MQG     -0.694617
     53 H46        -6.3800   -1.2370   -0.5010 H1         1 MQG      0.058413
     54 O27        -5.6910   -3.0220   -1.0540 OH         1 MQG     -0.715611
     55 O28        -5.1920   -0.7160    1.3650 OH         1 MQG     -0.707081
     56 H47        -4.2510   -2.4520    0.8230 H1         1 MQG     -0.003038
     57 1H22       -6.0980    1.5870   -2.0860 H1         1 MQG      0.036678
     58 O28        -4.7160    2.6950   -1.1590 OH         1 MQG     -0.666848
     59 2H22       -5.8460    1.1600   -0.4000 H1         1 MQG      0.036678
     60 8HO2       -4.0840    2.6360   -0.4480 HO         1 MQG      0.428312
     61 5HO2       -3.5780   -1.4600   -3.3800 HO         1 MQG      0.471163
     62 7HO2       -5.0010   -3.3530   -1.6160 HO         1 MQG      0.444278
     63 8HO2       -4.6400   -0.6190    2.1300 HO         1 MQG      0.437892
@<TRIPOS>BOND
    1     1     2 1
    2     2     4 1
    3     2    19 1
    4     4     5 1
    5     4    18 1
    6     5     7 1
    7     7     8 1
    8     7    24 1
    9     8     9 1
   10     8    18 1
   11     9    10 1
   12     9    11 1
   13    11    13 1
   14    13    14 1
   15    13    17 1
   16    17    18 1
   17    24    25 1
   18    25    28 1
   19    28    29 1
   20    28    32 1
   21    29    30 1
   22    29    36 1
   23    30    31 1
   24    30    38 1
   25    31    32 1
   26    36    42 1
   27    42    43 1
   28    42    47 1
   29    43    44 1
   30    44    45 1
   31    44    49 1
   32    45    46 1
   33    45    52 1
   34    46    47 1
   35    46    54 1
   36    47    55 1
   37    49    58 1
   38     1    21 1
   39     2     3 1
   40     5     6 1
   41    11    12 1
   42    14    15 1
   43    14    16 1
   44    19    20 1
   45    19    22 1
   46    19    23 1
   47    24    26 1
   48    24    27 1
   49    25    33 1
   50    28    34 1
   51    29    35 1
   52    30    37 1
   53    31    39 1
   54    32    40 1
   55    38    41 1
   56    42    48 1
   57    44    50 1
   58    45    51 1
   59    46    53 1
   60    47    56 1
   61    49    57 1
   62    49    59 1
   63    52    61 1
   64    54    62 1
   65    55    63 1
   66    58    60 1
@<TRIPOS>SUBSTRUCTURE
      1 MQG               1 ****               0 ****  **** 
