@<TRIPOS>MOLECULE
modXNA-fragment:MSA:HEAD01:@N9:HEAD01STRIP:@C1',H1',O4',HHO4,C2',H2'1,H2'3,H2'2
   29    30     1     0     0
SMALL
USER_CHARGES


@<TRIPOS>ATOM
      1 O4'         4.2500   -0.2590    0.8040 OH         1 MSA     -0.739290
      2 C1'         3.1410   -0.8340    0.1810 CT         1 MSA      0.313102
      3 H1'         2.7230   -1.6250    0.7890 H2         1 MSA      0.059250
      4 N9          2.1390    0.2120    0.1270 N*         1 MSA     -0.135333
      5 C8          2.3330    1.5720    0.0600 CK         1 MSA      0.209514
      6 H8          3.3180    1.9860    0.0840 H5         1 MSA      0.155843
      7 N7          1.2450    2.2460   -0.0080 NB         1 MSA     -0.661624
      8 C5          0.2510    1.2870    0.0090 CB         1 MSA      0.094334
      9 C6         -1.1480    1.3520   -0.0360 CA         1 MSA      0.178564
     10 N6         -1.8000    2.5180   -0.1150 N2         1 MSA     -0.281932
     11 C11        -3.2400    2.6360   -0.1480 CT         1 MSA     -0.254450
     12 H6         -1.2420    3.3400   -0.1230 H          1 MSA      0.320388
     13 N1         -1.8390    0.2160   -0.0010 NC         1 MSA     -0.351081
     14 C2         -1.1770   -0.9320    0.0740 CQ         1 MSA      0.396630
     15 S2         -2.1140   -2.4340    0.1150 S          1 MSA     -0.232799
     16 N3          0.1220   -1.1220    0.1220 NC         1 MSA     -0.638866
     17 C4          0.7910    0.0260    0.0920 CB         1 MSA      0.280167
     18 C2'         3.4750   -1.3660   -1.2050 CT         1 MSA     -0.330832
     19 H2'1        3.8770   -0.5710   -1.8240 HC         1 MSA      0.122935
     20 HHO4        4.9690   -0.8760    0.8060 HO         1 MSA      0.475523
     21 H2'2        4.2130   -2.1610   -1.1350 HC         1 MSA      0.122935
     22 H2'3        2.5880   -1.7710   -1.6750 HC         1 MSA      0.122935
     23 1H11       -3.4890    3.6860   -0.2200 H1         1 MSA      0.128758
     24 2H11       -3.6900    2.2300    0.7500 H1         1 MSA      0.128758
     25 3H11       -3.6560    2.1180   -1.0030 H1         1 MSA      0.128758
     26 C21        -3.8190   -1.8410    0.0330 CT         1 MSA     -0.130386
     27 1H21       -4.4410   -2.7270    0.0560 H1         1 MSA      0.093087
     28 2H21       -3.9990   -1.2970   -0.8810 H1         1 MSA      0.093087
     29 3H21       -4.0540   -1.2130    0.8790 H1         1 MSA      0.093087
@<TRIPOS>BOND
    1     1     2 1
    2     2     4 1
    3     2    18 1
    4     4     5 1
    5     4    17 1
    6     5     7 1
    7     7     8 1
    8     8     9 1
    9     8    17 1
   10     9    10 1
   11     9    13 1
   12    10    11 1
   13    13    14 1
   14    14    15 1
   15    14    16 1
   16    15    26 1
   17    16    17 1
   18     1    20 1
   19     2     3 1
   20     5     6 1
   21    10    12 1
   22    11    23 1
   23    11    24 1
   24    11    25 1
   25    18    19 1
   26    18    21 1
   27    18    22 1
   28    26    27 1
   29    26    28 1
   30    26    29 1
@<TRIPOS>SUBSTRUCTURE
      1 MSA               1 ****               0 ****  **** 
