@<TRIPOS>MOLECULE
modXNA-fragment:MSU:HEAD01:@N1:HEAD01STRIP:@C1',H1',O4',HHO4,C2',H2'1,H2'3,H2'2
   27    27     1     0     0
SMALL
USER_CHARGES


@<TRIPOS>ATOM
      1 O4'        -1.7140   -2.4360    0.7920 OH         1 MSU     -0.682398
      2 C1'        -2.1650   -1.3080    0.1240 CT         1 MSU      0.353569
      3 H1'        -2.9370   -0.8060    0.6770 H2         1 MSU     -0.012751
      4 N1         -1.0480   -0.3320    0.0060 N*         1 MSU      0.239306
      5 C6          0.1990   -0.8320   -0.3420 CM         1 MSU     -0.238156
      6 H6          0.2240   -1.8990   -0.4370 H4         1 MSU      0.231319
      7 C5          1.2840   -0.0860   -0.5300 CM         1 MSU     -0.051178
      8 C8          2.6400   -0.6410   -0.9230 CT         1 MSU     -0.217078
      9 C4          1.1430    1.3560   -0.3500 C          1 MSU      0.561739
     10 O4          2.0170    2.1650   -0.4690 O          1 MSU     -0.592895
     11 N3         -0.1410    1.7600   -0.0130 NA         1 MSU     -0.269680
     12 H3         -0.2710    2.7440    0.1030 H          1 MSU      0.276717
     13 C2         -1.2450    0.9960    0.1600 C          1 MSU     -0.042600
     14 S2         -2.7090    1.7270    0.5350 S          1 MSU     -0.388935
     15 C2'        -2.6720   -1.7270   -1.2400 CT         1 MSU     -0.174582
     16 H2'1       -1.8920   -2.2230   -1.8080 HC         1 MSU      0.072652
     17 HHO4       -1.6440   -2.2580    1.7210 HO         1 MSU      0.424116
     18 H2'2       -3.4950   -2.4190   -1.1160 HC         1 MSU      0.072652
     19 H2'3       -3.0180   -0.8610   -1.7910 HC         1 MSU      0.072652
     20 H81         2.5400   -1.7080   -1.0990 H1         1 MSU      0.194638
     21 N9          3.7140   -0.4280    0.0200 NT         1 MSU     -0.697083
     22 H82         2.9360   -0.1900   -1.8630 H1         1 MSU      0.194638
     23 C10         3.5420   -1.0450    1.3170 CT         1 MSU      0.091286
     24 H9          3.8970    0.5510    0.1080 H          1 MSU      0.396828
     25 1H10        4.4170   -0.8440    1.9230 H1         1 MSU      0.031952
     26 2H10        3.4640   -2.1210    1.1980 H1         1 MSU      0.031952
     27 3H10        2.6640   -0.7050    1.8690 H1         1 MSU      0.031952
@<TRIPOS>BOND
    1     1     2 1
    2     2     4 1
    3     2    15 1
    4     4     5 1
    5     4    13 1
    6     5     7 1
    7     7     8 1
    8     7     9 1
    9     8    21 1
   10     9    10 1
   11     9    11 1
   12    11    13 1
   13    13    14 1
   14    21    23 1
   15     1    17 1
   16     2     3 1
   17     5     6 1
   18     8    20 1
   19     8    22 1
   20    11    12 1
   21    15    16 1
   22    15    18 1
   23    15    19 1
   24    21    24 1
   25    23    25 1
   26    23    26 1
   27    23    27 1
@<TRIPOS>SUBSTRUCTURE
      1 MSU               1 ****               0 ****  **** 
