@<TRIPOS>MOLECULE
modXNA-fragment:MTA:HEAD01:@N9:HEAD01STRIP:@C1',H1',O4',HHO4,C2',H2'1,H2'3,H2'2
   41    43     1     0     0
SMALL
USER_CHARGES


@<TRIPOS>ATOM
      1 O4'        -5.2540   -1.9700    0.4020 OH         1 MTA     -0.726213
      2 C1'        -4.5870   -0.9010   -0.1940 CT         1 MTA      0.301810
      3 H1'        -4.7610    0.0170    0.3520 H2         1 MTA      0.052973
      4 N9         -3.1740   -1.1990   -0.0470 N*         1 MTA     -0.111295
      5 C8         -2.5700   -2.4370   -0.0110 CK         1 MTA      0.248392
      6 H8         -3.1580   -3.3280   -0.0580 H5         1 MTA      0.147745
      7 N7         -1.2960   -2.3970    0.0990 NB         1 MTA     -0.648942
      8 C5         -0.9990   -1.0500    0.1410 CB         1 MTA      0.116231
      9 C6          0.1690   -0.3260    0.2510 CA         1 MTA      0.221586
     10 C10         1.5300   -0.9570    0.3670 CT         1 MTA     -0.044283
     11 N1          0.1210    0.9960    0.2530 NC         1 MTA     -0.606410
     12 C2         -1.0570    1.5990    0.1550 CQ         1 MTA      0.479561
     13 S2         -0.9490    3.3600    0.1730 S          1 MTA     -0.226188
     14 N3         -2.2370    1.0210    0.0480 NC         1 MTA     -0.489127
     15 C4         -2.1640   -0.2960    0.0490 CB         1 MTA      0.211383
     16 C2'        -4.9750   -0.7240   -1.6540 CT         1 MTA     -0.436535
     17 H2'1       -4.4090    0.0850   -2.1000 HC         1 MTA      0.162133
     18 HHO4       -6.1870   -1.8870    0.2600 HO         1 MTA      0.479760
     19 H2'2       -6.0310   -0.4810   -1.7350 HC         1 MTA      0.162133
     20 H2'3       -4.7850   -1.6370   -2.2070 HC         1 MTA      0.162133
     21 C21         2.4920   -0.4130   -0.6820 C          1 MTA      0.380176
     22 C22         3.5990    0.3680    0.0130 CT         1 MTA     -0.008381
     23 N23         3.3720    0.0350    1.4010 N          1 MTA     -0.659276
     24 C24         2.2020   -0.5890    1.6900 C          1 MTA      0.508499
     25 8O10        2.4200   -0.5900   -1.8550 O          1 MTA     -0.508017
     26 0C11        5.0080    0.0230   -0.5050 CT         1 MTA      0.449554
     27 H23         3.8680    0.4770    2.1440 H          1 MTA      0.375630
     28 5O11        1.7800   -0.8240    2.7790 O          1 MTA     -0.585549
     29 C30        -2.6830    3.8500    0.0380 CT         1 MTA     -0.166968
     30 O12         5.1520    0.5230   -1.8020 OH         1 MTA     -0.735663
     31 C13         5.3620   -1.4580   -0.4210 CT         1 MTA     -0.329563
     32 2HO1        4.4890    0.1340   -2.3620 HO         1 MTA      0.447007
     33 1H13        6.3800   -1.5980   -0.7640 HC         1 MTA      0.109533
     34 2H13        4.7150   -2.0570   -1.0540 HC         1 MTA      0.109533
     35 3H13        5.2890   -1.8270    0.5960 HC         1 MTA      0.109533
     36 H10         1.4460   -2.0340    0.2800 HC         1 MTA      0.103533
     37 H22         3.4270    1.4240   -0.1810 H1         1 MTA      0.087768
     38 0H11        5.7140    0.5810    0.1000 H1         1 MTA      0.052232
     39 1H30       -2.6870    4.9330    0.0500 H1         1 MTA      0.111867
     40 2H30       -3.2590    3.4800    0.8740 H1         1 MTA      0.111867
     41 3H30       -3.1180    3.4990   -0.8860 H1         1 MTA      0.111867
@<TRIPOS>BOND
    1     1     2 1
    2     2     4 1
    3     2    16 1
    4     4     5 1
    5     4    15 1
    6     5     7 1
    7     7     8 1
    8     8     9 1
    9     8    15 1
   10     9    10 1
   11     9    11 1
   12    10    21 1
   13    10    24 1
   14    11    12 1
   15    12    13 1
   16    12    14 1
   17    13    29 1
   18    14    15 1
   19    21    22 1
   20    21    25 1
   21    22    23 1
   22    22    26 1
   23    23    24 1
   24    24    28 1
   25    26    30 1
   26    26    31 1
   27     1    18 1
   28     2     3 1
   29     5     6 1
   30    10    36 1
   31    16    17 1
   32    16    19 1
   33    16    20 1
   34    22    37 1
   35    23    27 1
   36    26    38 1
   37    29    39 1
   38    29    40 1
   39    29    41 1
   40    30    32 1
   41    31    33 1
   42    31    34 1
   43    31    35 1
@<TRIPOS>SUBSTRUCTURE
      1 MTA               1 ****               0 ****  **** 
