@<TRIPOS>MOLECULE
modXNA-fragment:MTU:HEAD01:@N9:HEAD01STRIP:@C1',H1',O4',HHO4,C2',H2'1,H2'3,H2'2
   22    23     1     0     0
SMALL
USER_CHARGES


@<TRIPOS>ATOM
      1 O4'         3.1900   -0.3080    0.9280 OH         1 MTU     -0.747749
      2 C1'         2.1130   -0.8430    0.2180 CT         1 MTU      0.342772
      3 H1'         1.6290   -1.6280    0.7840 H2         1 MTU      0.042787
      4 N9          1.1470    0.2280    0.1070 N*         1 MTU     -0.125281
      5 C8          1.3920    1.5820   -0.0320 CK         1 MTU      0.210934
      6 H8          2.3940    1.9540   -0.0180 H5         1 MTU      0.151909
      7 N7          0.3400    2.2960   -0.1470 NB         1 MTU     -0.647064
      8 C5         -0.7030    1.3840   -0.0910 CB         1 MTU      0.084258
      9 C6         -2.0770    1.4790   -0.1470 CA         1 MTU      0.183690
     10 N1         -2.8300    0.3990   -0.0620 NC         1 MTU     -0.766893
     11 C2         -2.2240   -0.7830    0.0750 CQ         1 MTU      0.801998
     12 N2         -3.0400   -1.8730    0.1110 N2         1 MTU     -1.000757
     13 H21        -3.9970   -1.6950    0.3150 H          1 MTU      0.405382
     14 H22        -2.6500   -2.7080    0.4850 H          1 MTU      0.405382
     15 N3         -0.9190   -1.0080    0.1500 NC         1 MTU     -0.778838
     16 C4         -0.2050    0.0950    0.0660 CB         1 MTU      0.294302
     17 C2'         2.5340   -1.3690   -1.1460 CT         1 MTU     -0.338125
     18 H2'1        3.0020   -0.5810   -1.7250 HC         1 MTU      0.123113
     19 HHO4        3.9020   -0.9320    0.9450 HO         1 MTU      0.476742
     20 H2'2        3.2410   -2.1860   -1.0340 HC         1 MTU      0.123113
     21 H2'3        1.6720   -1.7420   -1.6860 HC         1 MTU      0.123113
     22 H6         -2.5820    2.4230   -0.2580 H4         1 MTU      0.136317
@<TRIPOS>BOND
    1     1     2 1
    2     2     4 1
    3     2    17 1
    4     4     5 1
    5     4    16 1
    6     5     7 1
    7     7     8 1
    8     8     9 1
    9     8    16 1
   10     9    10 1
   11    10    11 1
   12    11    12 1
   13    11    15 1
   14    15    16 1
   15     1    19 1
   16     2     3 1
   17     5     6 1
   18     9    22 1
   19    12    13 1
   20    12    14 1
   21    17    18 1
   22    17    20 1
   23    17    21 1
@<TRIPOS>SUBSTRUCTURE
      1 MTU               1 ****               0 ****  **** 
