@<TRIPOS>MOLECULE
modXNA-fragment:MWG:HEAD01:@N9:HEAD01STRIP:@C1',H1',O4',HHO4,C2',H2'1,H2'3,H2'2
   34    36     1     0     0
SMALL
USER_CHARGES


@<TRIPOS>ATOM
      1 O4'         3.6740   -1.2080    1.1020 OH         1 MWG     -0.627552
      2 C1'         3.4040   -0.7410   -0.1880 CT         1 MWG      0.227116
      3 H1'         2.9940   -1.5360   -0.7940 H2         1 MWG      0.079208
      4 N9          2.3800    0.2730   -0.0750 N*         1 MWG      0.001306
      5 C8          2.5970    1.6400    0.0140 CK         1 MWG      0.190652
      6 H8          3.5850    2.0450    0.0100 H5         1 MWG      0.125820
      7 N7          1.5260    2.3190    0.0870 NB         1 MWG     -0.575436
      8 C5          0.5100    1.3920    0.0720 CB         1 MWG      0.055941
      9 C6         -0.9110    1.6600    0.0920 C          1 MWG      0.509659
     10 O6         -1.4480    2.7200    0.1630 O          1 MWG     -0.538329
     11 N1         -1.6380    0.4590    0.0010 N*         1 MWG     -0.173180
     12 C2         -1.1040   -0.8000   -0.0540 CB         1 MWG      0.221952
     13 N3          0.2610   -1.0050   -0.0320 N*         1 MWG      0.003630
     14 C4          1.0220    0.1290   -0.0070 CB         1 MWG     -0.042826
     15 C2'         4.6640   -0.2230   -0.8690 CT         1 MWG     -0.381147
     16 H2'1        5.1770    0.5010   -0.2490 HC         1 MWG      0.146140
     17 HHO4        4.3750   -1.8460    1.0770 HO         1 MWG      0.426368
     18 H2'2        5.3400   -1.0560   -1.0320 HC         1 MWG      0.146140
     19 H2'3        4.4380    0.2180   -1.8310 HC         1 MWG      0.146140
     20 C21        -3.0370    0.2740   -0.0250 CA         1 MWG      0.016802
     21 N22        -1.9880   -1.7220   -0.1090 NB         1 MWG     -0.581260
     22 C22        -3.2080   -1.0580   -0.0900 CC         1 MWG      0.267056
     23 C23         0.7410   -2.3750    0.1160 CT         1 MWG     -0.061618
     24 1H23       -0.0680   -2.9620    0.5150 H1         1 MWG      0.076939
     25 2H23        1.5740   -2.3980    0.8000 H1         1 MWG      0.076939
     26 3H23        1.0260   -2.7960   -0.8410 H1         1 MWG      0.076939
     27 C10        -4.0180    1.4030    0.0100 CT         1 MWG     -0.308831
     28 C11        -4.4680   -1.8620   -0.1470 CT         1 MWG     -0.360971
     29 1H10       -5.0210    0.9990   -0.0330 HC         1 MWG      0.134454
     30 2H10       -3.8830    2.0770   -0.8260 HC         1 MWG      0.134454
     31 3H10       -3.9220    1.9900    0.9140 HC         1 MWG      0.134454
     32 1H11       -4.5180   -2.5450    0.6950 HC         1 MWG      0.134109
     33 2H11       -4.4940   -2.4590   -1.0530 HC         1 MWG      0.134109
     34 3H11       -5.3500   -1.2350   -0.1280 HC         1 MWG      0.134109
@<TRIPOS>BOND
    1     1     2 1
    2     2     4 1
    3     2    15 1
    4     4     5 1
    5     4    14 1
    6     5     7 1
    7     7     8 1
    8     8     9 1
    9     8    14 1
   10     9    10 1
   11     9    11 1
   12    11    12 1
   13    11    20 1
   14    12    13 1
   15    12    21 1
   16    13    14 1
   17    13    23 1
   18    20    22 1
   19    20    27 1
   20    21    22 1
   21    22    28 1
   22     1    17 1
   23     2     3 1
   24     5     6 1
   25    15    16 1
   26    15    18 1
   27    15    19 1
   28    23    24 1
   29    23    25 1
   30    23    26 1
   31    27    29 1
   32    27    30 1
   33    27    31 1
   34    28    32 1
   35    28    33 1
   36    28    34 1
@<TRIPOS>SUBSTRUCTURE
      1 MWG               1 ****               0 ****  **** 
