@<TRIPOS>MOLECULE
modXNA-fragment:N1A:HEAD01:@N9:HEAD01STRIP:@C1',H1',O4',HHO4,C2',H2'1,H2'3,H2'2
   23    24     1     0     0
SMALL
USER_CHARGES


@<TRIPOS>ATOM
      1 O4'        -3.2200   -0.5620    0.8650 OH         1 N1A     -0.717342
      2 C1'        -2.4500    0.3900    0.2160 CT         1 N1A      0.299413
      3 H1'        -2.3040    1.2670    0.8320 H2         1 N1A      0.080972
      4 N9         -1.1290   -0.2420    0.0940 N*         1 N1A     -0.107939
      5 C8         -0.8680   -1.5880   -0.0490 CK         1 N1A      0.205497
      6 H8         -1.6640   -2.3000   -0.0670 H5         1 N1A      0.196069
      7 N7          0.3830   -1.8630   -0.1340 NB         1 N1A     -0.572100
      8 C5          0.9960   -0.6450   -0.0410 CB         1 N1A      0.010173
      9 C6          2.3440   -0.3000   -0.0560 CM         1 N1A      0.550888
     10 N6          3.3340   -1.1610   -0.1810 N2         1 N1A     -0.940306
     11 H61         4.2950   -0.8990   -0.1840 H          1 N1A      0.474895
     12 H62         3.1150   -2.1320   -0.2660 H          1 N1A      0.474895
     13 N1          2.5780    1.0310    0.0710 NA         1 N1A     -0.660018
     14 C2          1.5770    1.9600    0.2050 CA         1 N1A      0.374390
     15 H2          1.9100    2.9750    0.2960 H5         1 N1A      0.134624
     16 N3          0.3340    1.6830    0.2240 NC         1 N1A     -0.625456
     17 C4          0.0670    0.3650    0.1030 CB         1 N1A      0.363834
     18 C2'        -3.0040    0.7750   -1.1450 CT         1 N1A     -0.388300
     19 H2'1       -3.1220   -0.1030   -1.7690 HC         1 N1A      0.156045
     20 HHO4       -4.1290   -0.2900    0.9020 HO         1 N1A      0.495783
     21 H2'2       -3.9730    1.2490   -1.0250 HC         1 N1A      0.156045
     22 H2'3       -2.3490    1.4810   -1.6410 HC         1 N1A      0.156045
     23 H1          3.5190    1.3670    0.0710 H          1 N1A      0.434769
@<TRIPOS>BOND
    1     1     2 1
    2     2     4 1
    3     2    18 1
    4     4     5 1
    5     4    17 1
    6     5     7 1
    7     7     8 1
    8     8     9 1
    9     8    17 1
   10     9    10 1
   11     9    13 1
   12    13    14 1
   13    14    16 1
   14    16    17 1
   15     1    20 1
   16     2     3 1
   17     5     6 1
   18    10    11 1
   19    10    12 1
   20    13    23 1
   21    14    15 1
   22    18    19 1
   23    18    21 1
   24    18    22 1
@<TRIPOS>SUBSTRUCTURE
      1 N1A               1 ****               0 ****  **** 
