@<TRIPOS>MOLECULE
modXNA-fragment:N2A:HEAD01:@N9:HEAD01STRIP:@C1',H1',O4',HHO4,C2',H2'1,H2'3,H2'2
   24    25     1     0     0
SMALL
USER_CHARGES


@<TRIPOS>ATOM
      1 O4'        -3.4770   -0.1740    0.8510 OH         1 N2A     -0.356336
      2 C1'        -2.4910    0.5710    0.2000 CT         1 N2A      0.344254
      3 H1'        -2.1970    1.4250    0.7950 H2         1 N2A      0.042959
      4 N9         -1.3320   -0.2910    0.1250 N*         1 N2A     -0.383603
      5 C8         -1.3010   -1.6640    0.0150 CK         1 N2A      0.143708
      6 H8         -2.2050   -2.2320    0.0260 H5         1 N2A      0.102591
      7 N7         -0.1340   -2.1430   -0.0700 NB         1 N2A     -0.501726
      8 C5          0.6930   -1.0370   -0.0220 CB         1 N2A      0.019971
      9 C6          2.0810   -0.8700   -0.0670 CA         1 N2A      0.365587
     10 N6          2.9240   -1.9120   -0.1480 N2         1 N2A     -0.743809
     11 H61         3.8860   -1.7320   -0.3190 H          1 N2A      0.358299
     12 H62         2.5620   -2.8200   -0.3290 H          1 N2A      0.358299
     13 N1          2.5870    0.3510   -0.0090 NC         1 N2A     -0.635113
     14 C2          1.7480    1.3850    0.0950 CQ         1 N2A      0.581939
     15 N15         2.3340    2.6140    0.1060 N2         1 N2A     -0.742862
     16 N3          0.4290    1.3550    0.1590 NC         1 N2A     -0.717177
     17 C4         -0.0390    0.1160    0.0960 CB         1 N2A      0.404299
     18 C2'        -2.9420    1.0310   -1.1790 CT         1 N2A     -0.199452
     19 H2'1       -3.2150    0.1770   -1.7890 HC         1 N2A      0.074626
     20 HHO4       -4.3000    0.2940    0.8210 HO         1 N2A      0.204072
     21 H2'2       -3.8020    1.6900   -1.0960 HC         1 N2A      0.074626
     22 H2'3       -2.1450    1.5780   -1.6690 HC         1 N2A      0.074626
     23 1H15        3.3010    2.6340    0.3340 H          1 N2A      0.302958
     24 2H15        1.7770    3.3610    0.4520 H          1 N2A      0.302958
@<TRIPOS>BOND
    1     1     2 1
    2     2     4 1
    3     2    18 1
    4     4     5 1
    5     4    17 1
    6     5     7 1
    7     7     8 1
    8     8     9 1
    9     8    17 1
   10     9    10 1
   11     9    13 1
   12    13    14 1
   13    14    15 1
   14    14    16 1
   15    16    17 1
   16     1    20 1
   17     2     3 1
   18     5     6 1
   19    10    11 1
   20    10    12 1
   21    15    23 1
   22    15    24 1
   23    18    19 1
   24    18    21 1
   25    18    22 1
@<TRIPOS>SUBSTRUCTURE
      1 N2A               1 ****               0 ****  **** 
