@<TRIPOS>MOLECULE
modXNA-fragment:N3C:HEAD01:@N1:HEAD01STRIP:@C1',H1',O4',HHO4,C2',H2'1,H2'3,H2'2
   21    21     1     0     0
SMALL
USER_CHARGES


@<TRIPOS>ATOM
      1 O4'        -2.4450   -1.2520    0.6870 OH         1 N3C     -0.746757
      2 C1'        -2.0560   -0.0010    0.2370 CT         1 N3C      0.276103
      3 H1'        -2.2350    0.7600    0.9810 H2         1 N3C      0.084292
      4 N1         -0.5710   -0.0990    0.1190 N*         1 N3C     -0.123114
      5 C6          0.0490   -1.2830   -0.0550 CM         1 N3C      0.161179
      6 C5          1.3930   -1.4130   -0.1610 CM         1 N3C     -0.534082
      7 C4          2.1730   -0.2400   -0.0730 CM         1 N3C      0.748488
      8 N4          3.4850   -0.2380   -0.1510 N2         1 N3C     -1.067281
      9 H41         4.0300    0.5950   -0.0830 H          1 N3C      0.505951
     10 H42         3.9830   -1.0930   -0.2770 H          1 N3C      0.505951
     11 N3          1.5250    0.9230    0.1000 NA         1 N3C     -0.654816
     12 C2          0.1420    1.0770    0.1990 C          1 N3C      0.549087
     13 O2         -0.3410    2.1470    0.3390 O          1 N3C     -0.522160
     14 C2'        -2.6850    0.3730   -1.0920 CT         1 N3C     -0.321346
     15 H2'1       -2.4750   -0.3860   -1.8370 HC         1 N3C      0.137079
     16 HHO4       -3.3830   -1.2780    0.8300 HO         1 N3C      0.513718
     17 H2'2       -3.7610    0.4480   -0.9720 HC         1 N3C      0.137079
     18 H2'3       -2.3230    1.3330   -1.4360 HC         1 N3C      0.137079
     19 H3          2.0220    1.7890    0.1680 H          1 N3C      0.414263
     20 H6         -0.5980   -2.1340   -0.0960 H4         1 N3C      0.244892
     21 H5          1.8520   -2.3700   -0.2960 HA         1 N3C      0.276679
@<TRIPOS>BOND
    1     1     2 1
    2     2     4 1
    3     2    14 1
    4     4     5 1
    5     4    12 1
    6     5     6 1
    7     6     7 1
    8     7     8 1
    9     7    11 1
   10    11    12 1
   11    12    13 1
   12     1    16 1
   13     2     3 1
   14     5    20 1
   15     6    21 1
   16     8     9 1
   17     8    10 1
   18    11    19 1
   19    14    15 1
   20    14    17 1
   21    14    18 1
@<TRIPOS>SUBSTRUCTURE
      1 N3C               1 ****               0 ****  **** 
