@<TRIPOS>MOLECULE
modXNA-fragment:N3U:HEAD01:@N1:HEAD01STRIP:@C1',H1',O4',HHO4,C2',H2'1,H2'3,H2'2
   33    33     1     0     0
SMALL
USER_CHARGES


@<TRIPOS>ATOM
      1 O4'        -4.8530   -0.5530   -0.2720 OH         1 N3U     -0.745664
      2 C1'        -3.6020   -1.1690   -0.1890 CT         1 N3U      0.331919
      3 H1'        -3.3660   -1.6780   -1.1090 H2         1 N3U      0.042455
      4 N1         -2.6310   -0.0800   -0.0630 N*         1 N3U     -0.214064
      5 C6         -2.9450    1.0750    0.6120 CM         1 N3U      0.078094
      6 H6         -3.9480    1.1230    0.9800 H4         1 N3U      0.213631
      7 C5         -2.0720    2.0620    0.7800 CM         1 N3U     -0.495805
      8 H5         -2.3200    2.9620    1.3040 HA         1 N3U      0.238336
      9 C4         -0.7280    1.9380    0.2370 C          1 N3U      0.661812
     10 O4          0.1270    2.7690    0.3500 O          1 N3U     -0.604080
     11 N3         -0.4780    0.7470   -0.4490 N*         1 N3U     -0.420081
     12 C12         0.8610    0.5580   -1.0200 CT         1 N3U      0.057520
     13 C2         -1.3730   -0.2890   -0.5810 C          1 N3U      0.551146
     14 O2         -1.0820   -1.3240   -1.1160 O          1 N3U     -0.591533
     15 C2'        -3.5210   -2.1330    0.9840 CT         1 N3U     -0.306985
     16 H2'1       -3.7330   -1.6180    1.9140 HC         1 N3U      0.112959
     17 HHO4       -5.5220   -1.2130   -0.3940 HO         1 N3U      0.479418
     18 H2'2       -4.2460   -2.9340    0.8610 HC         1 N3U      0.112959
     19 H2'3       -2.5360   -2.5780    1.0360 HC         1 N3U      0.112959
     20 C8          1.8240   -0.0800   -0.0220 CT         1 N3U     -0.225863
     21 1H12        1.2040    1.5340   -1.3160 H1         1 N3U      0.061944
     22 2H12        0.7550   -0.0620   -1.8960 H1         1 N3U      0.061944
     23 C10         3.2500   -0.2020   -0.5910 CT         1 N3U      0.251460
     24 H81         1.4550   -1.0680    0.2370 HC         1 N3U      0.098370
     25 H82         1.8520    0.5170    0.8840 HC         1 N3U      0.098370
     26 C12         4.0940   -1.0260    0.3600 C          1 N3U      0.576344
     27 N13         3.9400    1.0490   -0.8560 NT         1 N3U     -1.066868
     28 H10         3.2230   -0.7700   -1.5120 H1         1 N3U      0.048116
     29 O13         4.4370   -0.3430    1.4500 OH         1 N3U     -0.665913
     30 O14         4.4000   -2.1620    0.1980 O          1 N3U     -0.618244
     31 1H13        3.8930    1.6640   -0.0670 H          1 N3U      0.413257
     32 2H13        3.5440    1.5240   -1.6420 H          1 N3U      0.413257
     33 3HO1        4.9660   -0.9100    2.0030 HO         1 N3U      0.471575
@<TRIPOS>BOND
    1     1     2 1
    2     2     4 1
    3     2    15 1
    4     4     5 1
    5     4    13 1
    6     5     7 1
    7     7     9 1
    8     9    10 1
    9     9    11 1
   10    11    12 1
   11    11    13 1
   12    12    20 1
   13    13    14 1
   14    20    23 1
   15    23    26 1
   16    23    27 1
   17    26    29 1
   18    26    30 1
   19     1    17 1
   20     2     3 1
   21     5     6 1
   22     7     8 1
   23    12    21 1
   24    12    22 1
   25    15    16 1
   26    15    18 1
   27    15    19 1
   28    20    24 1
   29    20    25 1
   30    23    28 1
   31    27    31 1
   32    27    32 1
   33    29    33 1
@<TRIPOS>SUBSTRUCTURE
      1 N3U               1 ****               0 ****  **** 
