@<TRIPOS>MOLECULE
modXNA-fragment:N4C:HEAD01:@N1:HEAD01STRIP:@C1',H1',O4',HHO4,C2',H2'1,H2'3,H2'2
   23    23     1     0     0
SMALL
USER_CHARGES


@<TRIPOS>ATOM
      1 O4'        -2.9460   -1.0470    0.7130 OH         1 N4C     -0.764092
      2 C1'        -2.3750    0.1370    0.2310 CT         1 N4C      0.314582
      3 H1'        -2.4930    0.9350    0.9460 H2         1 N4C      0.055385
      4 N1         -0.9390   -0.1120    0.1300 N*         1 N4C     -0.280048
      5 C6         -0.4480   -1.3580   -0.0700 CM         1 N4C      0.218809
      6 H6         -1.1720   -2.1440   -0.1220 H4         1 N4C      0.184588
      7 C5          0.8690   -1.5790   -0.1780 CM         1 N4C     -0.662451
      8 H5          1.2640   -2.5640   -0.3290 HA         1 N4C      0.254356
      9 C4          1.7170   -0.4220   -0.0590 CA         1 N4C      0.713511
     10 N4          3.0460   -0.5850   -0.1390 N2         1 N4C     -0.565739
     11 C11         3.9850    0.5090   -0.0110 CT         1 N4C     -0.154918
     12 H4          3.3980   -1.5060   -0.2500 H          1 N4C      0.353604
     13 N3          1.2540    0.7790    0.1210 NC         1 N4C     -0.806621
     14 C2         -0.0820    1.0020    0.2030 C          1 N4C      0.682415
     15 O2         -0.5740    2.0920    0.3290 O          1 N4C     -0.661285
     16 C2'        -2.9710    0.5410   -1.1090 CT         1 N4C     -0.299951
     17 H2'1       -2.8420   -0.2570   -1.8330 HC         1 N4C      0.109759
     18 HHO4       -3.8730   -0.9110    0.8510 HO         1 N4C      0.481945
     19 H2'2       -4.0340    0.7390   -1.0030 HC         1 N4C      0.109759
     20 H2'3       -2.4930    1.4410   -1.4720 HC         1 N4C      0.109759
     21 1H11        4.9840    0.1110   -0.1370 H1         1 N4C      0.116738
     22 2H11        3.9080    0.9790    0.9610 H1         1 N4C      0.116738
     23 3H11        3.8040    1.2620   -0.7660 H1         1 N4C      0.116738
@<TRIPOS>BOND
    1     1     2 1
    2     2     4 1
    3     2    16 1
    4     4     5 1
    5     4    14 1
    6     5     7 1
    7     7     9 1
    8     9    10 1
    9     9    13 1
   10    10    11 1
   11    13    14 1
   12    14    15 1
   13     1    18 1
   14     2     3 1
   15     5     6 1
   16     7     8 1
   17    10    12 1
   18    11    21 1
   19    11    22 1
   20    11    23 1
   21    16    17 1
   22    16    19 1
   23    16    20 1
@<TRIPOS>SUBSTRUCTURE
      1 N4C               1 ****               0 ****  **** 
