@<TRIPOS>MOLECULE
modXNA-fragment:N5C:HEAD01:@N1:HEAD01STRIP:@C1',H1',O4',HHO4,C2',H2'1,H2'3,H2'2
   22    22     1     0     0
SMALL
USER_CHARGES


@<TRIPOS>ATOM
      1 O4'         2.3510   -1.7860   -0.7610 OH         1 N5C     -0.745017
      2 C1'         2.4930   -0.5010   -0.2370 CT         1 N5C      0.337324
      3 H1'         3.0250    0.1400   -0.9210 H2         1 N5C      0.052283
      4 N1          1.1280    0.0450   -0.1530 N*         1 N5C     -0.251335
      5 C6          0.0700   -0.7440   -0.0790 CM         1 N5C      0.134502
      6 H6          0.2360   -1.7990   -0.0930 H4         1 N5C      0.235322
      7 C5         -1.1890   -0.2310    0.0010 CM         1 N5C     -0.376716
      8 N5         -2.2760   -1.1530    0.0790 NO         1 N5C      0.874524
      9 C4         -1.3210    1.2110   -0.0140 CA         1 N5C      0.728814
     10 N4         -2.4980    1.8220    0.0410 N2         1 N5C     -1.069001
     11 H41        -2.4910    2.8170    0.0210 H          1 N5C      0.478118
     12 H42        -3.3490    1.3140    0.0890 H          1 N5C      0.478118
     13 N3         -0.2600    1.9670   -0.0830 NC         1 N5C     -0.885737
     14 C2          0.9890    1.4660   -0.1420 C          1 N5C      0.714879
     15 O2          1.9920    2.1170   -0.1830 O          1 N5C     -0.630654
     16 C2'         3.1690   -0.5100    1.1240 CT         1 N5C     -0.336523
     17 H2'1        2.6220   -1.1470    1.8110 HC         1 N5C      0.127236
     18 HHO4        3.2000   -2.2040   -0.8170 HO         1 N5C      0.482424
     19 H2'2        4.1810   -0.8930    1.0300 HC         1 N5C      0.127236
     20 H2'3        3.2240    0.4930    1.5230 HC         1 N5C      0.127236
     21 O3         -2.0230   -2.3210    0.0970 O2         1 N5C     -0.491350
     22 O4         -3.3930   -0.7150    0.1270 O2         1 N5C     -0.491350
@<TRIPOS>BOND
    1     1     2 1
    2     2     4 1
    3     2    16 1
    4     4     5 1
    5     4    14 1
    6     5     7 1
    7     7     8 1
    8     7     9 1
    9     8    21 1
   10     8    22 1
   11     9    10 1
   12     9    13 1
   13    13    14 1
   14    14    15 1
   15     1    18 1
   16     2     3 1
   17     5     6 1
   18    10    11 1
   19    10    12 1
   20    16    17 1
   21    16    19 1
   22    16    20 1
@<TRIPOS>SUBSTRUCTURE
      1 N5C               1 ****               0 ****  **** 
