@<TRIPOS>MOLECULE
modXNA-fragment:N5U:HEAD01:@N1:HEAD01STRIP:@C1',H1',O4',HHO4,C2',H2'1,H2'3,H2'2
   21    21     1     0     0
SMALL
USER_CHARGES


@<TRIPOS>ATOM
      1 O4'        -2.3900   -1.2600    0.9740 OH         1 N5U     -0.717535
      2 C1'        -2.1800   -0.1330    0.1760 CT         1 N5U      0.321431
      3 H1'        -2.5780    0.7500    0.6470 H2         1 N5U      0.065414
      4 N1         -0.7320    0.0560    0.1240 N*         1 N5U     -0.215668
      5 C6          0.1140   -1.0300    0.0200 CM         1 N5U     -0.045607
      6 H6         -0.3630   -1.9860    0.0170 H4         1 N5U      0.238762
      7 C5          1.4400   -0.9280   -0.0500 CM         1 N5U      0.116426
      8 N5          2.2570   -2.0830   -0.1410 N2         1 N5U     -1.024394
      9 C4          2.0410    0.4070   -0.0240 C          1 N5U      0.516324
     10 O4          3.2140    0.6360   -0.0810 O          1 N5U     -0.590174
     11 N3          1.1180    1.4360    0.0690 NA         1 N5U     -0.694741
     12 H3          1.4800    2.3660    0.0770 H          1 N5U      0.404624
     13 C2         -0.2470    1.3410    0.1300 C          1 N5U      0.568115
     14 O2         -0.9510    2.3110    0.1760 O          1 N5U     -0.612342
     15 C2'        -2.7740   -0.3010   -1.2140 CT         1 N5U     -0.353394
     16 H2'1       -2.3530   -1.1700   -1.7090 HC         1 N5U      0.129974
     17 HHO4       -3.3190   -1.4320    1.0420 HO         1 N5U      0.465668
     18 H2'2       -3.8510   -0.4330   -1.1490 HC         1 N5U      0.129974
     19 H2'3       -2.5800    0.5800   -1.8130 HC         1 N5U      0.129974
     20 H51         2.8850   -2.0040   -0.9190 H          1 N5U      0.406222
     21 H52         2.8330   -2.1700    0.6740 H          1 N5U      0.406222
@<TRIPOS>BOND
    1     1     2 1
    2     2     4 1
    3     2    15 1
    4     4     5 1
    5     4    13 1
    6     5     7 1
    7     7     8 1
    8     7     9 1
    9     9    10 1
   10     9    11 1
   11    11    13 1
   12    13    14 1
   13     1    17 1
   14     2     3 1
   15     5     6 1
   16     8    20 1
   17     8    21 1
   18    11    12 1
   19    15    16 1
   20    15    18 1
   21    15    19 1
@<TRIPOS>SUBSTRUCTURE
      1 N5U               1 ****               0 ****  **** 
