@<TRIPOS>MOLECULE
modXNA-fragment:N6A:HEAD01:@N9:HEAD01STRIP:@C1',H1',O4',HHO4,C2',H2'1,H2'3,H2'2
   25    26     1     0     0
SMALL
USER_CHARGES


@<TRIPOS>ATOM
      1 O4'        -3.6160   -0.7140    0.7700 OH         1 N6A     -0.733565
      2 C1'        -2.8150    0.2790    0.2020 CT         1 N6A      0.316115
      3 H1'        -2.7390    1.1360    0.8580 H2         1 N6A      0.063485
      4 N9         -1.4860   -0.2910    0.1190 N*         1 N6A     -0.202089
      5 C8         -1.1360   -1.6100   -0.0350 CK         1 N6A      0.249804
      6 H8         -1.8830   -2.3730   -0.0660 H5         1 N6A      0.142122
      7 N7          0.1290   -1.8040   -0.1100 NB         1 N6A     -0.654153
      8 C5          0.6730   -0.5400   -0.0050 CB         1 N6A     -0.082942
      9 C6          1.9930   -0.0620   -0.0120 CA         1 N6A      0.504727
     10 N6          3.0420   -0.8840   -0.1430 N2         1 N6A     -0.429479
     11 C11         4.4160   -0.4360   -0.1290 CT         1 N6A     -0.203690
     12 H6          2.8440   -1.8550   -0.2090 H          1 N6A      0.340812
     13 N1          2.1910    1.2460    0.1130 NC         1 N6A     -0.775221
     14 C2          1.1340    2.0410    0.2360 CQ         1 N6A      0.490151
     15 H2          1.3590    3.0880    0.3310 H5         1 N6A      0.039695
     16 N3         -0.1380    1.7200    0.2560 NC         1 N6A     -0.813690
     17 C4         -0.3140    0.4050    0.1360 CB         1 N6A      0.428759
     18 C2'        -3.3270    0.7140   -1.1630 CT         1 N6A     -0.348313
     19 H2'1       -3.3880   -0.1390   -1.8300 HC         1 N6A      0.129099
     20 HHO4       -4.5190   -0.4290    0.7760 HO         1 N6A      0.474395
     21 H2'2       -4.3160    1.1570   -1.0710 HC         1 N6A      0.129099
     22 H2'3       -2.6650    1.4560   -1.5920 HC         1 N6A      0.129099
     23 1H11        5.0530   -1.2990   -0.2690 H1         1 N6A      0.126003
     24 2H11        4.6690    0.0380    0.8120 H1         1 N6A      0.126003
     25 3H11        4.6040    0.2710   -0.9270 H1         1 N6A      0.126003
@<TRIPOS>BOND
    1     1     2 1
    2     2     4 1
    3     2    18 1
    4     4     5 1
    5     4    17 1
    6     5     7 1
    7     7     8 1
    8     8     9 1
    9     8    17 1
   10     9    10 1
   11     9    13 1
   12    10    11 1
   13    13    14 1
   14    14    16 1
   15    16    17 1
   16     1    20 1
   17     2     3 1
   18     5     6 1
   19    10    12 1
   20    11    23 1
   21    11    24 1
   22    11    25 1
   23    14    15 1
   24    18    19 1
   25    18    21 1
   26    18    22 1
@<TRIPOS>SUBSTRUCTURE
      1 N6A               1 ****               0 ****  **** 
