@<TRIPOS>MOLECULE
modXNA-fragment:N6G:HEAD01:@N9:HEAD01STRIP:@C1',H1',O4',HHO4,C2',H2'1,H2'3,H2'2
   24    25     1     0     0
SMALL
USER_CHARGES


@<TRIPOS>ATOM
      1 O4'        -3.4720   -0.1550    0.8780 OH         1 N6G     -0.759866
      2 C1'        -2.4960    0.5740    0.1940 CT         1 N6G      0.347269
      3 H1'        -2.1940    1.4430    0.7630 H2         1 N6G      0.035875
      4 N9         -1.3370   -0.2880    0.1240 N*         1 N6G     -0.040636
      5 C8         -1.3070   -1.6650    0.0210 CK         1 N6G      0.145865
      6 H8         -2.2120   -2.2320    0.0400 H5         1 N6G      0.163093
      7 N7         -0.1270   -2.1480   -0.0680 NB         1 N6G     -0.606342
      8 C5          0.6990   -1.0380   -0.0320 CB         1 N6G      0.040841
      9 C6          2.0880   -0.8680   -0.0760 CA         1 N6G      0.496649
     10 N10         2.9310   -1.9070   -0.2040 N2         1 N6G     -0.894279
     11 N1          2.5920    0.3540   -0.0050 NC         1 N6G     -0.787615
     12 C2          1.7510    1.3880    0.0920 CQ         1 N6G      0.740638
     13 N2          2.3370    2.6170    0.1090 N2         1 N6G     -0.963446
     14 H21         3.3050    2.6390    0.3320 H          1 N6G      0.396811
     15 H22         1.7790    3.3660    0.4510 H          1 N6G      0.396811
     16 N3          0.4300    1.3580    0.1490 NC         1 N6G     -0.764318
     17 C4         -0.0380    0.1170    0.0870 CB         1 N6G      0.207577
     18 C2'        -2.9680    0.9990   -1.1890 CT         1 N6G     -0.326203
     19 H2'1       -3.2540    0.1300   -1.7720 HC         1 N6G      0.117899
     20 HHO4       -4.2910    0.3210    0.8650 HO         1 N6G      0.478779
     21 H2'2       -3.8250    1.6630   -1.1090 HC         1 N6G      0.117899
     22 H2'3       -2.1780    1.5290   -1.7070 HC         1 N6G      0.117899
     23 1H10        3.9040   -1.7430   -0.0890 H          1 N6G      0.408458
     24 2H10        2.5830   -2.8320   -0.1040 H          1 N6G      0.408458
@<TRIPOS>BOND
    1     1     2 1
    2     2     4 1
    3     2    18 1
    4     4     5 1
    5     4    17 1
    6     5     7 1
    7     7     8 1
    8     8     9 1
    9     8    17 1
   10     9    10 1
   11     9    11 1
   12    11    12 1
   13    12    13 1
   14    12    16 1
   15    16    17 1
   16     1    20 1
   17     2     3 1
   18     5     6 1
   19    10    23 1
   20    10    24 1
   21    13    14 1
   22    13    15 1
   23    18    19 1
   24    18    21 1
   25    18    22 1
@<TRIPOS>SUBSTRUCTURE
      1 N6G               1 ****               0 ****  **** 
