@<TRIPOS>MOLECULE
modXNA-fragment:NCD:HEAD01:@N1:HEAD01STRIP:@C1',H1',O4',HO4',C2',H2'1,H2'3,H2'2
   35    35     1     0     0
SMALL
USER_CHARGES


@<TRIPOS>ATOM
      1 O4'         3.6450   -1.7780    1.1260 OH         1 NCD     -0.728055
      2 C1'         3.5860   -1.1790   -0.1430 CT         1 NCD      0.440649
      3 H1'         3.2110   -1.8770   -0.8710 H2         1 NCD      0.029967
      4 N1          2.6110   -0.1100   -0.0570 N          1 NCD     -0.497140
      5 C6          2.6970    0.7920    1.0820 CT         1 NCD      0.104560
      6 H61         3.7370    0.9510    1.3190 H1         1 NCD      0.080098
      7 C5          2.0290    2.1030    0.7220 CT         1 NCD     -0.251151
      8 H51         2.5800    2.6010   -0.0710 HC         1 NCD      0.116117
      9 C4          0.6280    1.8620    0.2260 C          1 NCD      0.534473
     10 O4         -0.2600    2.6470    0.3840 O          1 NCD     -0.583055
     11 N3          0.4290    0.6770   -0.4530 N          1 NCD     -0.378447
     12 C12        -0.9040    0.4460   -1.0210 CT         1 NCD     -0.005486
     13 C2          1.4100   -0.2960   -0.6800 C          1 NCD      0.579819
     14 O2          1.1800   -1.2160   -1.4130 O          1 NCD     -0.583848
     15 C2'         4.9530   -0.6710   -0.5780 CT         1 NCD     -0.424400
     16 H2'1        4.8880   -0.2000   -1.5520 HC         1 NCD      0.145241
     17 HO4'        4.1080   -2.6030    1.0700 HO         1 NCD      0.445977
     18 H2'2        5.3650    0.0370    0.1300 HC         1 NCD      0.145241
     19 H2'3        5.6470   -1.5040   -0.6520 HC         1 NCD      0.145241
     20 C8         -1.8450   -0.1990   -0.0060 CT         1 NCD     -0.071251
     21 1H12       -0.7840   -0.1860   -1.8850 H1         1 NCD      0.068644
     22 2H12       -1.2750    1.4060   -1.3390 H1         1 NCD      0.068644
     23 C10        -3.2950   -0.2250   -0.4970 CT         1 NCD      0.218682
     24 H81        -1.8040    0.3550    0.9280 HC         1 NCD      0.056051
     25 H82        -1.5240   -1.2100    0.2020 HC         1 NCD      0.056051
     26 C12        -4.1640   -1.0790    0.4380 C          1 NCD      0.543994
     27 H10        -3.3390   -0.7390   -1.4540 H1         1 NCD      0.036066
     28 N14        -3.9030    1.0920   -0.6760 NT         1 NCD     -1.043112
     29 O13        -5.3870   -0.6260    0.6300 OH         1 NCD     -0.587554
     30 O15        -3.7760   -2.0900    0.9210 O          1 NCD     -0.586705
     31 1H14       -3.7900    1.4370   -1.6070 H          1 NCD      0.398701
     32 2H14       -3.5020    1.7690   -0.0540 H          1 NCD      0.398701
     33 3HO1       -5.4690    0.2130    0.1770 HO         1 NCD      0.403741
     34 H61         2.2320    0.3480    1.9560 H1         1 NCD      0.080098
     35 H52         1.9700    2.7750    1.5670 HC         1 NCD      0.116117
@<TRIPOS>BOND
    1     1     2 1
    2     2     4 1
    3     2    15 1
    4     4     5 1
    5     4    13 1
    6     5     7 1
    7     7     9 1
    8     9    10 1
    9     9    11 1
   10    11    12 1
   11    11    13 1
   12    12    20 1
   13    13    14 1
   14    20    23 1
   15    23    26 1
   16    23    28 1
   17    26    29 1
   18    26    30 1
   19     1    17 1
   20     2     3 1
   21     5     6 1
   22     5    34 1
   23     7     8 1
   24     7    35 1
   25    12    21 1
   26    12    22 1
   27    15    16 1
   28    15    18 1
   29    15    19 1
   30    20    24 1
   31    20    25 1
   32    23    27 1
   33    28    31 1
   34    28    32 1
   35    29    33 1
@<TRIPOS>SUBSTRUCTURE
      1 NCD               1 ****               0 ****  **** 
