@<TRIPOS>MOLECULE
modXNA-fragment:NEC:HEAD01:@N1:HEAD01STRIP:@C1',H1',O4',HHO4,C2',H2'1,H2'3,H2'2
   22    23     1     0     0
SMALL
USER_CHARGES


@<TRIPOS>ATOM
      1 O4'         3.0210    0.7070    0.9130 OH         1 NEC     -0.726178
      2 C1'         2.3680   -0.2910    0.1850 CT         1 NEC      0.343609
      3 H1'         2.3880   -1.2270    0.7190 H2         1 NEC      0.048054
      4 N1          0.9620    0.1100    0.1190 N*         1 NEC     -0.199733
      5 C6          0.6260    1.4510   -0.0350 CM         1 NEC     -0.022164
      6 H6          1.4620    2.1160   -0.0450 H4         1 NEC      0.227187
      7 C5         -0.6310    1.8690   -0.1370 CM         1 NEC     -0.414531
      8 H5         -0.8830    2.9030   -0.2470 HA         1 NEC      0.245379
      9 C4         -1.6700    0.8730   -0.0810 CB         1 NEC      0.482989
     10 N3         -1.2730   -0.4360    0.0660 N*         1 NEC      0.036127
     11 C2          0.0250   -0.8890    0.1550 C          1 NEC      0.465204
     12 O2          0.2930   -2.0530    0.2460 O          1 NEC     -0.577563
     13 C2'         2.9660   -0.4650   -1.2030 CT         1 NEC     -0.324296
     14 H2'1        2.9190    0.4660   -1.7580 HC         1 NEC      0.117839
     15 HHO4        3.9290    0.4660    1.0320 HO         1 NEC      0.465009
     16 H2'2        4.0060   -0.7670   -1.1280 HC         1 NEC      0.117839
     17 H2'3        2.4310   -1.2330   -1.7480 HC         1 NEC      0.117839
     18 N3         -2.9500    0.9790   -0.1500 NB         1 NEC     -0.645253
     19 C19        -3.4300   -0.3090   -0.0460 CV         1 NEC      0.136037
     20 C20        -2.4310   -1.1980    0.0850 CA         1 NEC     -0.383345
     21 H19        -4.4810   -0.5060   -0.0730 H4         1 NEC      0.131739
     22 H20        -2.4000   -2.2590    0.1890 H4         1 NEC      0.268685
@<TRIPOS>BOND
    1     1     2 1
    2     2     4 1
    3     2    13 1
    4     4     5 1
    5     4    11 1
    6     5     7 1
    7     7     9 1
    8     9    10 1
    9     9    18 1
   10    10    11 1
   11    10    20 1
   12    11    12 1
   13    18    19 1
   14    19    20 1
   15     1    15 1
   16     2     3 1
   17     5     6 1
   18     7     8 1
   19    13    14 1
   20    13    16 1
   21    13    17 1
   22    19    21 1
   23    20    22 1
@<TRIPOS>SUBSTRUCTURE
      1 NEC               1 ****               0 ****  **** 
