@<TRIPOS>MOLECULE
modXNA-fragment:NF2:HEAD01:@C1:HEAD01STRIP:@C1',H1',O4',HHO4,C2',H2'1,H2'3,H2'2
   22    22     1     0     0
SMALL
USER_CHARGES


@<TRIPOS>ATOM
      1 O4'        -2.4420   -1.6350    0.6360 OH         1 NF2     -0.760216
      2 C1'        -2.2530   -0.2970    0.2460 CT         1 NF2      0.428374
      3 H1'        -2.6630    0.3630    1.0060 H1         1 NF2     -0.023289
      4 C1         -0.7600   -0.0490    0.1610 CA         1 NF2     -0.138008
      5 C6          0.1660   -1.0800    0.0550 CA         1 NF2     -0.179540
      6 H6         -0.1960   -2.0890    0.0600 HA         1 NF2      0.232046
      7 C5          1.5330   -0.8520   -0.0420 CA         1 NF2      0.020821
      8 C8          2.5380   -1.9720   -0.1540 CT         1 NF2     -0.181968
      9 C4          1.9480    0.4670   -0.0270 CA         1 NF2      0.250609
     10 F4          3.2500    0.7270   -0.1170 F          1 NF2     -0.197465
     11 C3          1.0790    1.5280    0.0780 CA         1 NF2     -0.356495
     12 H3          1.4320    2.5410    0.0900 HA         1 NF2      0.240155
     13 C2         -0.2640    1.2390    0.1700 CA         1 NF2      0.264229
     14 F2         -1.1200    2.2580    0.2720 F          1 NF2     -0.206165
     15 C2'        -2.9560   -0.0150   -1.0810 CT         1 NF2     -0.380198
     16 H2'1       -2.5650   -0.6660   -1.8550 HC         1 NF2      0.125034
     17 HHO4       -3.3700   -1.8110    0.7040 HO         1 NF2      0.449935
     18 H2'2       -4.0250   -0.1920   -0.9900 HC         1 NF2      0.125034
     19 H2'3       -2.8140    1.0160   -1.3840 HC         1 NF2      0.125034
     20 H81         2.0380   -2.9330   -0.1460 HC         1 NF2      0.082674
     21 H82         3.2430   -1.9510    0.6710 HC         1 NF2      0.082674
     22 H83         3.1110   -1.8960   -1.0720 HC         1 NF2      0.082674
@<TRIPOS>BOND
    1     1     2 1
    2     2     4 1
    3     2    15 1
    4     4     5 1
    5     4    13 1
    6     5     7 1
    7     7     8 1
    8     7     9 1
    9     9    10 1
   10     9    11 1
   11    11    13 1
   12    13    14 1
   13     1    17 1
   14     2     3 1
   15     5     6 1
   16     8    20 1
   17     8    21 1
   18     8    22 1
   19    11    12 1
   20    15    16 1
   21    15    18 1
   22    15    19 1
@<TRIPOS>SUBSTRUCTURE
      1 NF2               1 ****               0 ****  **** 
