@<TRIPOS>MOLECULE
modXNA-fragment:NGU:HEAD01:@N1:HEAD01STRIP:@C1',H1',O4',HHO4,C2',H2'1,H2'3,H2'2
   50    50     1     0     0
SMALL
USER_CHARGES


@<TRIPOS>ATOM
      1 O4'        -4.2620    2.7840    0.9150 OH         1 NGU     -0.690343
      2 C1'        -3.2490    2.3160    0.0760 CT         1 NGU      0.245744
      3 H1'        -2.2880    2.5990    0.4760 H2         1 NGU      0.070472
      4 N1         -3.3290    0.8590    0.1190 N*         1 NGU     -0.189096
      5 C6         -4.5780    0.2630    0.0080 CM         1 NGU      0.024599
      6 H6         -5.3940    0.9510   -0.0390 H4         1 NGU      0.155204
      7 C5         -4.7410   -1.0550   -0.0090 CM         1 NGU     -0.340711
      8 C8         -6.0790   -1.7570   -0.1130 CT         1 NGU      0.409610
      9 C4         -3.5380   -1.8990    0.0950 C          1 NGU      0.714050
     10 O4         -3.6000   -3.0950    0.0920 O          1 NGU     -0.668223
     11 N3         -2.3180   -1.2400    0.1960 NC         1 NGU     -0.706383
     12 C2         -2.2500    0.0300    0.2040 CA         1 NGU      0.445539
     13 S2         -0.6430    0.7850    0.3040 S          1 NGU     -0.304336
     14 C2'        -3.3970    2.8490   -1.3430 CT         1 NGU     -0.166758
     15 H2'1       -2.6100    2.4610   -1.9780 HC         1 NGU      0.067063
     16 HHO4       -4.2690    3.7320    0.9060 HO         1 NGU      0.462304
     17 H2'2       -4.3570    2.5680   -1.7600 HC         1 NGU      0.067063
     18 H2'3       -3.3270    3.9330   -1.3440 HC         1 NGU      0.067063
     19 N8         -7.2610   -0.9240   -0.2000 NT         1 NGU     -1.117925
     20 H81        -6.1850   -2.4140    0.7420 H1         1 NGU      0.000425
     21 H82        -6.0550   -2.4110   -0.9770 H1         1 NGU      0.000425
     22 H81        -7.2490   -0.3380   -1.0110 H          1 NGU      0.401984
     23 C13         0.4370   -0.6880    0.4420 CT         1 NGU     -0.027589
     24 C14         1.8400   -0.2160    0.7090 CM         1 NGU     -0.239098
     25 1H13        0.3370   -1.2680   -0.4580 H1         1 NGU      0.116802
     26 2H13        0.0660   -1.2850    1.2600 H1         1 NGU      0.116802
     27 C15         2.8280   -0.1110   -0.1690 CM         1 NGU      0.136083
     28 H14         2.0350    0.0520    1.7340 HA         1 NGU      0.170449
     29 C17         4.2010    0.3440    0.2800 CT         1 NGU     -0.215875
     30 C18         2.6930   -0.4280   -1.6410 CT         1 NGU     -0.165130
     31 C17         5.2860   -0.7440    0.1550 CT         1 NGU      0.038479
     32 1H17        4.1520    0.6760    1.3120 HC         1 NGU      0.109168
     33 2H17        4.5060    1.2060   -0.3110 HC         1 NGU      0.109168
     34 1H18        3.1670   -1.3750   -1.8810 HC         1 NGU      0.078524
     35 2H18        3.1870    0.3360   -2.2340 HC         1 NGU      0.078524
     36 3H18        1.6630   -0.4810   -1.9660 HC         1 NGU      0.078524
     37 C22         6.6040   -0.2830    0.7210 CM         1 NGU     -0.382612
     38 1H17        5.3870   -1.0490   -0.8790 HC         1 NGU      0.058974
     39 2H17        4.9550   -1.6230    0.7050 HC         1 NGU      0.058974
     40 C24         7.7480   -0.0580    0.0910 CM         1 NGU      0.225841
     41 H22         6.5850   -0.1120    1.7870 HA         1 NGU      0.196503
     42 C26         7.9810   -0.2300   -1.3910 CT         1 NGU     -0.254814
     43 C27         8.9690    0.4090    0.8490 CT         1 NGU     -0.254814
     44 1H26        8.3300    0.7040   -1.8270 HC         1 NGU      0.092760
     45 2H26        7.0990   -0.5390   -1.9330 HC         1 NGU      0.092760
     46 3H26        8.7590   -0.9690   -1.5680 HC         1 NGU      0.092760
     47 1H27        9.7900   -0.2950    0.7310 HC         1 NGU      0.092760
     48 2H27        8.7690    0.5180    1.9090 HC         1 NGU      0.092760
     49 3H27        9.3180    1.3660    0.4700 HC         1 NGU      0.092760
     50 H82        -7.3680   -0.3400    0.6070 H          1 NGU      0.401984
@<TRIPOS>BOND
    1     1     2 1
    2     2     4 1
    3     2    14 1
    4     4     5 1
    5     4    12 1
    6     5     7 1
    7     7     8 1
    8     7     9 1
    9     8    19 1
   10     9    10 1
   11     9    11 1
   12    11    12 1
   13    12    13 1
   14    13    23 1
   15    23    24 1
   16    24    27 1
   17    27    29 1
   18    27    30 1
   19    29    31 1
   20    31    37 1
   21    37    40 1
   22    40    42 1
   23    40    43 1
   24     1    16 1
   25     2     3 1
   26     5     6 1
   27     8    20 1
   28     8    21 1
   29    14    15 1
   30    14    17 1
   31    14    18 1
   32    19    22 1
   33    19    50 1
   34    23    25 1
   35    23    26 1
   36    24    28 1
   37    29    32 1
   38    29    33 1
   39    30    34 1
   40    30    35 1
   41    30    36 1
   42    31    38 1
   43    31    39 1
   44    37    41 1
   45    42    44 1
   46    42    45 1
   47    42    46 1
   48    43    47 1
   49    43    48 1
   50    43    49 1
@<TRIPOS>SUBSTRUCTURE
      1 NGU               1 ****               0 ****  **** 
