@<TRIPOS>MOLECULE
modXNA-fragment:NHA:HEAD01:@N9:HEAD01STRIP:@C1',H1',O4',HHO4,C2',H2'1,H2'3,H2'2
   25    26     1     0     0
SMALL
USER_CHARGES


@<TRIPOS>ATOM
      1 O4'        -3.6140   -0.6120    0.8660 OH         1 NHA     -0.757711
      2 C1'        -2.7930    0.2460    0.1320 CT         1 NHA      0.327884
      3 H1'        -2.6870    1.2000    0.6320 H2         1 NHA      0.045172
      4 N9         -1.4810   -0.3650    0.1410 N*         1 NHA      0.014184
      5 C8         -1.1710   -1.7090    0.1620 CK         1 NHA      0.127728
      6 H8         -1.9440   -2.4450    0.2200 H5         1 NHA      0.171390
      7 N7          0.0830   -1.9510    0.1310 NB         1 NHA     -0.582299
      8 C5          0.6740   -0.6980    0.0760 CB         1 NHA      0.007980
      9 C6          1.9870   -0.2330    0.0670 CA         1 NHA      0.614865
     10 N6          3.0770   -1.0670    0.1480 N2         1 NHA     -0.637465
     11 H6          3.9230   -0.6270   -0.1460 H          1 NHA      0.456323
     12 O12         2.9430   -2.2550   -0.5490 OH         1 NHA     -0.433446
     13 N1          2.2310    1.0630    0.0710 NC         1 NHA     -0.910412
     14 C2          1.1960    1.9080    0.0770 CQ         1 NHA      0.806080
     15 N15         1.5140    3.2300    0.0340 N2         1 NHA     -0.974520
     16 N3         -0.0900    1.6000    0.0860 NC         1 NHA     -0.790613
     17 C4         -0.2910    0.2910    0.0930 CB         1 NHA      0.201053
     18 C2'        -3.3080    0.4560   -1.2840 CT         1 NHA     -0.335218
     19 H2'1       -3.3980   -0.4950   -1.7970 HC         1 NHA      0.122140
     20 HHO4       -4.5130   -0.3200    0.8090 HO         1 NHA      0.480968
     21 H2'2       -4.2840    0.9350   -1.2640 HC         1 NHA      0.122140
     22 H2'3       -2.6310    1.0960   -1.8380 HC         1 NHA      0.122140
     23 2HO1        2.5670   -2.8720    0.0670 HO         1 NHA      0.444139
     24 1H15        2.4450    3.4690    0.2860 H          1 NHA      0.402375
     25 2H15        0.7980    3.8680    0.2940 H          1 NHA      0.402375
@<TRIPOS>BOND
    1     1     2 1
    2     2     4 1
    3     2    18 1
    4     4     5 1
    5     4    17 1
    6     5     7 1
    7     7     8 1
    8     8     9 1
    9     8    17 1
   10     9    10 1
   11     9    13 1
   12    10    12 1
   13    13    14 1
   14    14    15 1
   15    14    16 1
   16    16    17 1
   17     1    20 1
   18     2     3 1
   19     5     6 1
   20    10    11 1
   21    12    23 1
   22    15    24 1
   23    15    25 1
   24    18    19 1
   25    18    21 1
   26    18    22 1
@<TRIPOS>SUBSTRUCTURE
      1 NHA               1 ****               0 ****  **** 
