@<TRIPOS>MOLECULE
modXNA-fragment:NMG:HEAD01:@N9:HEAD01STRIP:@C1',H1',O4',HHO4,C2',H2'1,H2'3,H2'2
   29    30     1     0     0
SMALL
USER_CHARGES


@<TRIPOS>ATOM
      1 O4'         2.5060   -2.2010    1.1030 OH         1 NMG     -0.717909
      2 C1'         1.5270   -2.1780    0.1040 CT         1 NMG      0.406184
      3 H1'         0.7070   -2.8340    0.3590 H2         1 NMG     -0.008647
      4 N9          0.9850   -0.8430    0.0920 N*         1 NMG     -0.037879
      5 C8          1.7270    0.3380    0.0520 CA         1 NMG     -0.269762
      6 H8          2.7930    0.2900    0.0990 H4         1 NMG      0.213470
      7 C7          0.8980    1.4000    0.0050 C*         1 NMG     -0.032982
      8 C5         -0.4330    0.8520    0.0100 CB         1 NMG     -0.408470
      9 C6         -1.7400    1.4290   -0.0400 C          1 NMG      0.688761
     10 O6         -2.0720    2.5800   -0.1040 O          1 NMG     -0.668820
     11 N1         -2.7360    0.4310   -0.0120 NA         1 NMG     -0.606679
     12 H1         -3.6680    0.7710   -0.1190 H          1 NMG      0.413995
     13 C2         -2.5050   -0.9060    0.0410 CA         1 NMG      0.727045
     14 N2         -3.6100   -1.7080    0.0030 N2         1 NMG     -0.980726
     15 H21        -4.4430   -1.3630    0.4260 H          1 NMG      0.411040
     16 H22        -3.4140   -2.6630    0.2120 H          1 NMG      0.411040
     17 N3         -1.3330   -1.4320    0.0860 NC         1 NMG     -0.778121
     18 C4         -0.3210   -0.5200    0.0650 CB         1 NMG      0.397604
     19 C2'         2.1030   -2.5700   -1.2510 CT         1 NMG     -0.316208
     20 H2'1        2.9110   -1.9040   -1.5290 HC         1 NMG      0.107332
     21 HHO4        2.9400   -3.0430    1.1000 HO         1 NMG      0.444258
     22 H2'2        2.4900   -3.5850   -1.2190 HC         1 NMG      0.107332
     23 H2'3        1.3340   -2.5280   -2.0140 HC         1 NMG      0.107332
     24 C10         1.2600    2.8650   -0.0310 CT         1 NMG      0.385953
     25 N10         2.6800    3.1700   -0.0150 NT         1 NMG     -1.121312
     26 1H10        0.7960    3.3660    0.8100 H1         1 NMG      0.009184
     27 2H10        0.8260    3.3170   -0.9150 H1         1 NMG      0.009184
     28 1H10        3.1420    2.7570   -0.8020 H          1 NMG      0.400515
     29 2H10        3.1130    2.8050    0.8110 H          1 NMG      0.400515
@<TRIPOS>BOND
    1     1     2 1
    2     2     4 1
    3     2    19 1
    4     4     5 1
    5     4    18 1
    6     5     7 1
    7     7     8 1
    8     7    24 1
    9     8     9 1
   10     8    18 1
   11     9    10 1
   12     9    11 1
   13    11    13 1
   14    13    14 1
   15    13    17 1
   16    17    18 1
   17    24    25 1
   18     1    21 1
   19     2     3 1
   20     5     6 1
   21    11    12 1
   22    14    15 1
   23    14    16 1
   24    19    20 1
   25    19    22 1
   26    19    23 1
   27    24    26 1
   28    24    27 1
   29    25    28 1
   30    25    29 1
@<TRIPOS>SUBSTRUCTURE
      1 NMG               1 ****               0 ****  **** 
