@<TRIPOS>MOLECULE
modXNA-fragment:NMU:HEAD01:@N1:HEAD01STRIP:@C1',H1',O4',HHO4,C2',H2'1,H2'3,H2'2
   26    26     1     0     0
SMALL
USER_CHARGES


@<TRIPOS>ATOM
      1 O4'        -1.7920   -2.4300    0.8230 OH         1 NMU     -0.788109
      2 C1'        -2.3700   -1.3360    0.1760 CT         1 NMU      0.243502
      3 H1'        -3.1070   -0.8670    0.8040 H2         1 NMU      0.032237
      4 N1         -1.2830   -0.3540    0.0120 N*         1 NMU      0.369319
      5 C6         -0.0240   -0.8330   -0.3120 CM         1 NMU     -0.263171
      6 H6          0.0290   -1.8980   -0.3910 H4         1 NMU      0.285272
      7 C5          1.0460   -0.0610   -0.4980 CM         1 NMU      0.094604
      8 C8          2.4020   -0.5870   -0.8850 CT         1 NMU     -0.451251
      9 C4          0.8700    1.3830   -0.3600 C          1 NMU      0.414041
     10 O4          1.7260    2.2040   -0.4860 O          1 NMU     -0.532716
     11 N3         -0.4310    1.7610   -0.0520 NA         1 NMU     -0.194149
     12 H3         -0.5890    2.7440    0.0310 H          1 NMU      0.278878
     13 C2         -1.5180    0.9750    0.1280 C          1 NMU     -0.095970
     14 S2         -3.0050    1.6720    0.4560 S          1 NMU     -0.365783
     15 C2'        -2.9710   -1.7220   -1.1640 CT         1 NMU     -0.210798
     16 H2'1       -2.2210   -2.1730   -1.8050 HC         1 NMU      0.083663
     17 HHO4       -2.4730   -2.9870    1.1740 HO         1 NMU      0.512995
     18 H2'2       -3.7670   -2.4450   -1.0140 HC         1 NMU      0.083663
     19 H2'3       -3.3900   -0.8540   -1.6570 HC         1 NMU      0.083663
     20 H81         2.3230   -1.6350   -1.1590 HC         1 NMU      0.188643
     21 C9          3.5140   -0.5040    0.1570 C          1 NMU      0.712122
     22 H82         2.7730   -0.0580   -1.7520 HC         1 NMU      0.188643
     23 O10         4.6600   -0.5040   -0.1860 O          1 NMU     -0.626720
     24 N11         3.1430   -0.5310    1.4590 N          1 NMU     -1.022971
     25 1H11        2.2070   -0.3610    1.7430 H          1 NMU      0.420236
     26 2H11        3.8610   -0.3920    2.1340 H          1 NMU      0.420236
@<TRIPOS>BOND
    1     1     2 1
    2     2     4 1
    3     2    15 1
    4     4     5 1
    5     4    13 1
    6     5     7 1
    7     7     8 1
    8     7     9 1
    9     8    21 1
   10     9    10 1
   11     9    11 1
   12    11    13 1
   13    13    14 1
   14    21    23 1
   15    21    24 1
   16     1    17 1
   17     2     3 1
   18     5     6 1
   19     8    20 1
   20     8    22 1
   21    11    12 1
   22    15    16 1
   23    15    18 1
   24    15    19 1
   25    24    25 1
   26    24    26 1
@<TRIPOS>SUBSTRUCTURE
      1 NMU               1 ****               0 ****  **** 
