@<TRIPOS>MOLECULE
modXNA-fragment:NSU:HEAD01:@N1:HEAD01STRIP:@C1',H1',O4',HHO4,C2',H2'1,H2'3,H2'2
   24    24     1     0     0
SMALL
USER_CHARGES


@<TRIPOS>ATOM
      1 O4'        -1.8350   -2.2280    0.9610 OH         1 NSU     -0.681947
      2 C1'        -2.0730   -1.1280    0.1520 CT         1 NSU      0.335379
      3 H1'        -2.8230   -0.4840    0.5740 H2         1 NSU     -0.008005
      4 N1         -0.8340   -0.3080    0.0680 N*         1 NSU      0.243656
      5 C6          0.3640   -0.9860   -0.1050 CM         1 NSU     -0.200096
      6 H6          0.2610   -2.0510   -0.1060 H4         1 NSU      0.234168
      7 C5          1.5490   -0.3960   -0.2420 CM         1 NSU     -0.205491
      8 C8          2.8510   -1.1470   -0.4270 CT         1 NSU      0.278589
      9 C4          1.5790    1.0640   -0.2040 C          1 NSU      0.509236
     10 O4          2.5560    1.7460   -0.3030 O          1 NSU     -0.564644
     11 N3          0.3320    1.6490   -0.0360 NA         1 NSU     -0.181800
     12 H3          0.3190    2.6480   -0.0210 H          1 NSU      0.251834
     13 C2         -0.8720    1.0430    0.0870 C          1 NSU     -0.054469
     14 S2         -2.2580    1.9760    0.2450 S          1 NSU     -0.390021
     15 C2'        -2.4980   -1.6170   -1.2170 CT         1 NSU     -0.167256
     16 H2'1       -2.6770   -0.7760   -1.8750 HC         1 NSU      0.070259
     17 HHO4       -1.8380   -1.9690    1.8730 HO         1 NSU      0.424942
     18 H2'2       -1.7390   -2.2570   -1.6530 HC         1 NSU      0.070259
     19 H2'3       -3.4120   -2.1910   -1.1210 HC         1 NSU      0.070259
     20 H81         2.6310   -2.2050   -0.5230 H1         1 NSU      0.030048
     21 N9          3.8350   -0.9710    0.6230 NT         1 NSU     -1.038696
     22 H82         3.3070   -0.8350   -1.3580 H1         1 NSU      0.030048
     23 H91         3.4540   -1.2060    1.5190 H          1 NSU      0.393575
     24 H92         4.1350   -0.0160    0.6590 H          1 NSU      0.393575
@<TRIPOS>BOND
    1     1     2 1
    2     2     4 1
    3     2    15 1
    4     4     5 1
    5     4    13 1
    6     5     7 1
    7     7     8 1
    8     7     9 1
    9     8    21 1
   10     9    10 1
   11     9    11 1
   12    11    13 1
   13    13    14 1
   14     1    17 1
   15     2     3 1
   16     5     6 1
   17     8    20 1
   18     8    22 1
   19    11    12 1
   20    15    16 1
   21    15    18 1
   22    15    19 1
   23    21    23 1
   24    21    24 1
@<TRIPOS>SUBSTRUCTURE
      1 NSU               1 ****               0 ****  **** 
