@<TRIPOS>MOLECULE
modXNA-fragment:O2Z:HEAD01:@N9:HEAD01STRIP:@C1',H1',O4',HHO4,C2',H2'1,H2'3,H2'2
   26    27     1     0     0
SMALL
USER_CHARGES


@<TRIPOS>ATOM
      1 O4'        -3.7700   -0.5240    0.8410 OH         1 O2Z     -0.749007
      2 C1'        -2.8860    0.3230    0.1690 CT         1 O2Z      0.346956
      3 H1'        -2.7110    1.2270    0.7390 H2         1 O2Z      0.043133
      4 N9         -1.6240   -0.3810    0.1250 N*         1 O2Z     -0.172066
      5 C8         -1.4130   -1.7410    0.0360 CK         1 O2Z      0.239766
      6 H8         -2.2360   -2.4230    0.0450 H5         1 O2Z      0.139607
      7 N7         -0.1780   -2.0660   -0.0310 NB         1 O2Z     -0.656179
      8 C5          0.4940   -0.8580    0.0090 CB         1 O2Z     -0.055915
      9 C6          1.8520   -0.5060   -0.0200 CA         1 O2Z      0.358965
     10 N6          2.8140   -1.4370   -0.0980 N2         1 O2Z     -0.086744
     11 N11         4.1700   -1.1570   -0.1700 NT         1 O2Z     -0.903278
     12 H6          2.5600   -2.3940   -0.1650 H          1 O2Z      0.309760
     13 N1          2.1900    0.7720    0.0340 NC         1 O2Z     -0.810953
     14 C2          1.2160    1.6880    0.1110 CQ         1 O2Z      0.794106
     15 N15         1.6360    2.9840    0.1160 N2         1 O2Z     -0.988185
     16 N3         -0.0870    1.4850    0.1570 NC         1 O2Z     -0.829106
     17 C4         -0.3890    0.1900    0.1040 CB         1 O2Z      0.354437
     18 C2'        -3.3850    0.6770   -1.2240 CT         1 O2Z     -0.322492
     19 H2'1       -3.5450   -0.2240   -1.8060 HC         1 O2Z      0.117502
     20 HHO4       -4.6440   -0.1590    0.8120 HO         1 O2Z      0.475631
     21 H2'2       -4.3220    1.2240   -1.1630 HC         1 O2Z      0.117502
     22 H2'3       -2.6620    1.3040   -1.7320 HC         1 O2Z      0.117502
     23 1H11        4.4400   -0.6580    0.6550 H          1 O2Z      0.407132
     24 2H11        4.3340   -0.5460   -0.9470 H          1 O2Z      0.407132
     25 1H15        2.5880    3.1370    0.3560 H          1 O2Z      0.401477
     26 2H15        0.9790    3.6580    0.4360 H          1 O2Z      0.401477
@<TRIPOS>BOND
    1     1     2 1
    2     2     4 1
    3     2    18 1
    4     4     5 1
    5     4    17 1
    6     5     7 1
    7     7     8 1
    8     8     9 1
    9     8    17 1
   10     9    10 1
   11     9    13 1
   12    10    11 1
   13    13    14 1
   14    14    15 1
   15    14    16 1
   16    16    17 1
   17     1    20 1
   18     2     3 1
   19     5     6 1
   20    10    12 1
   21    11    23 1
   22    11    24 1
   23    15    25 1
   24    15    26 1
   25    18    19 1
   26    18    21 1
   27    18    22 1
@<TRIPOS>SUBSTRUCTURE
      1 O2Z               1 ****               0 ****  **** 
