@<TRIPOS>MOLECULE
modXNA-fragment:O4T:HEAD01:@N1:HEAD01STRIP:@C1',H1',O4',HHO4,C2',H2'1,H2'3,H2'2
   25    25     1     0     0
SMALL
USER_CHARGES


@<TRIPOS>ATOM
      1 C1'        -2.5130   -0.1260   -0.2240 CT         1 O4T      0.368038
      2 C2'        -3.1310   -0.3460    1.1480 CT         1 O4T     -0.344493
      3 O4'        -2.9460    1.0730   -0.8000 OH         1 O4T     -0.745023
      4 O4          2.9080    0.0530    0.0630 OS         1 O4T     -0.362374
      5 C4          1.5940   -0.0170    0.0030 CA         1 O4T      0.674626
      6 N3          1.0190   -1.1590   -0.1000 NC         1 O4T     -0.638431
      7 C2         -0.3440   -1.2440   -0.1580 C          1 O4T      0.704170
      8 O2         -0.9410   -2.2850   -0.2080 O          1 O4T     -0.650616
      9 N1         -1.0540   -0.0430   -0.1500 N*         1 O4T     -0.321833
     10 C6         -0.4200    1.1550   -0.0260 CM         1 O4T      0.030273
     11 C5          0.9140    1.2510    0.0620 CM         1 O4T     -0.237288
     12 C7          1.6620    2.5510    0.1910 CT         1 O4T     -0.181109
     13 H1'        -2.7330   -0.9600   -0.8700 H2         1 O4T      0.040088
     14 H2'1       -4.2120   -0.4230    1.0640 HC         1 O4T      0.123800
     15 H2'2       -2.7600   -1.2650    1.5810 HC         1 O4T      0.123800
     16 H6         -1.0580    2.0140   -0.0180 H4         1 O4T      0.226979
     17 H71         2.2510    2.5800    1.1010 HC         1 O4T      0.086827
     18 H72         2.3430    2.7000   -0.6400 HC         1 O4T      0.086827
     19 H73         0.9670    3.3830    0.2110 HC         1 O4T      0.086827
     20 H2'3       -2.8960    0.4850    1.8050 HC         1 O4T      0.123800
     21 HHO4       -3.8840    1.0370   -0.9260 HO         1 O4T      0.469694
     22 C8          3.6560   -1.1500    0.0070 CT         1 O4T     -0.094281
     23 H81         4.6890   -0.8470    0.0730 H1         1 O4T      0.113600
     24 H82         3.4710   -1.6690   -0.9210 H1         1 O4T      0.113600
     25 H83         3.3970   -1.7960    0.8330 H1         1 O4T      0.113600
@<TRIPOS>BOND
    1     1     2 1
    2     1     3 1
    3     1     9 1
    4     4     5 1
    5     4    22 1
    6     5     6 1
    7     5    11 1
    8     6     7 1
    9     7     8 1
   10     7     9 1
   11     9    10 1
   12    10    11 1
   13    11    12 1
   14     1    13 1
   15     2    14 1
   16     2    15 1
   17     2    20 1
   18     3    21 1
   19    10    16 1
   20    12    17 1
   21    12    18 1
   22    12    19 1
   23    22    23 1
   24    22    24 1
   25    22    25 1
@<TRIPOS>SUBSTRUCTURE
      1 O4T               1 ****               0 ****  **** 
