@<TRIPOS>MOLECULE
modXNA-fragment:O5C:HEAD01:@N1:HEAD01STRIP:@C1',H1',O4',HHO4,C2',H2'1,H2'3,H2'2
   21    21     1     0     0
SMALL
USER_CHARGES


@<TRIPOS>ATOM
      1 O4'        -2.4070   -1.4040    0.7990 OH         1 O5C     -0.723262
      2 C1'        -2.1840   -0.1430    0.2360 CT         1 O5C      0.378353
      3 H1'        -2.5300    0.6370    0.8950 H2         1 O5C      0.038987
      4 N1         -0.7320    0.0140    0.1490 N*         1 O5C     -0.305518
      5 C6          0.0860   -1.0640    0.0320 CM         1 O5C     -0.032564
      6 H6         -0.3750   -2.0290    0.0410 H4         1 O5C      0.236158
      7 C5          1.4090   -0.9080   -0.0700 CM         1 O5C      0.001446
      8 O5          2.2850   -1.9600   -0.1420 OH         1 O5C     -0.592327
      9 C4          1.9060    0.4420   -0.0000 CA         1 O5C      0.616662
     10 N4          3.2400    0.6270   -0.0700 N2         1 O5C     -1.012703
     11 H41         3.5690    1.5420    0.1440 H          1 O5C      0.437723
     12 H42         3.8340   -0.1390    0.1470 H          1 O5C      0.437723
     13 N3          1.1290    1.4710    0.0980 NC         1 O5C     -0.812133
     14 C2         -0.2230    1.3220    0.1440 C          1 O5C      0.673545
     15 O2         -0.9960    2.2410    0.1830 O          1 O5C     -0.645212
     16 C2'        -2.8450   -0.0130   -1.1270 CT         1 O5C     -0.372915
     17 H2'1       -2.4870   -0.7890   -1.7950 HC         1 O5C      0.132782
     18 HHO4       -3.3350   -1.5190    0.9480 HO         1 O5C      0.458492
     19 H2'2       -3.9230   -0.1130   -1.0320 HC         1 O5C      0.132782
     20 H2'3       -2.6320    0.9590   -1.5530 HC         1 O5C      0.132782
     21 HO5         2.4810   -2.1590   -1.0490 HO         1 O5C      0.419872
@<TRIPOS>BOND
    1     1     2 1
    2     2     4 1
    3     2    16 1
    4     4     5 1
    5     4    14 1
    6     5     7 1
    7     7     8 1
    8     7     9 1
    9     9    10 1
   10     9    13 1
   11    13    14 1
   12    14    15 1
   13     1    18 1
   14     2     3 1
   15     5     6 1
   16     8    21 1
   17    10    11 1
   18    10    12 1
   19    16    17 1
   20    16    19 1
   21    16    20 1
@<TRIPOS>SUBSTRUCTURE
      1 O5C               1 ****               0 ****  **** 
