@<TRIPOS>MOLECULE
modXNA-fragment:O5U:HEAD01:@N1:HEAD01STRIP:@C1',H1',O4',HHO4,C2',H2'1,H2'3,H2'2
   26    26     1     0     0
SMALL
USER_CHARGES


@<TRIPOS>ATOM
      1 O4'         2.5430   -1.7800   -1.3510 OH         1 O5U     -0.706616
      2 C1'         2.6380   -1.1620   -0.1020 CT         1 O5U      0.283946
      3 H1'         3.5970   -0.6880    0.0200 H2         1 O5U      0.071322
      4 N1          1.6560   -0.0790   -0.1210 N*         1 O5U     -0.133847
      5 C6          0.3940   -0.3070   -0.6260 CM         1 O5U     -0.051403
      6 H6          0.2150   -1.2830   -1.0210 H4         1 O5U      0.238240
      7 C5         -0.5540    0.6230   -0.6470 CM         1 O5U     -0.030571
      8 O8         -1.7600    0.3930   -1.2340 OS         1 O5U     -0.321844
      9 C4         -0.2810    1.9510   -0.1050 C          1 O5U      0.610317
     10 O4         -1.0640    2.8540   -0.0400 O          1 O5U     -0.589913
     11 N3          1.0090    2.0810    0.3760 NA         1 O5U     -0.762818
     12 H3          1.2510    2.9680    0.7660 H          1 O5U      0.409616
     13 C2          2.0040    1.1360    0.4140 C          1 O5U      0.588906
     14 O2          3.0760    1.3690    0.8940 O          1 O5U     -0.612955
     15 C2'         2.3760   -2.1330    1.0390 CT         1 O5U     -0.354131
     16 H2'1        1.3930   -2.5820    0.9490 HC         1 O5U      0.132479
     17 HHO4        3.0620   -2.5720   -1.3560 HO         1 O5U      0.465809
     18 H2'2        3.1190   -2.9260    1.0340 HC         1 O5U      0.132479
     19 H2'3        2.4450   -1.6180    1.9900 HC         1 O5U      0.132479
     20 C8         -2.8580    0.2930   -0.3900 CT         1 O5U     -0.063765
     21 C8         -2.9530   -1.0630    0.2920 C          1 O5U      0.594656
     22 H81        -3.7380    0.4270   -1.0080 H1         1 O5U      0.102185
     23 H82        -2.8580    1.0780    0.3590 H1         1 O5U      0.102185
     24 O10        -4.0110   -1.1970    1.0930 OH         1 O5U     -0.638097
     25 O12        -2.1820   -1.9460    0.1510 O          1 O5U     -0.528943
     26 0HO1       -4.5490   -0.4160    1.1260 HO         1 O5U      0.431983
@<TRIPOS>BOND
    1     1     2 1
    2     2     4 1
    3     2    15 1
    4     4     5 1
    5     4    13 1
    6     5     7 1
    7     7     8 1
    8     7     9 1
    9     8    20 1
   10     9    10 1
   11     9    11 1
   12    11    13 1
   13    13    14 1
   14    20    21 1
   15    21    24 1
   16    21    25 1
   17     1    17 1
   18     2     3 1
   19     5     6 1
   20    11    12 1
   21    15    16 1
   22    15    18 1
   23    15    19 1
   24    20    22 1
   25    20    23 1
   26    24    26 1
@<TRIPOS>SUBSTRUCTURE
      1 O5U               1 ****               0 ****  **** 
