@<TRIPOS>MOLECULE
modXNA-fragment:OAU:HEAD01:@N1:HEAD01STRIP:@C1',H1',C2',H2'1,H2'2,H2'3,O4',HHO4
   22    22     1     0     0
SMALL
USER_CHARGES


@<TRIPOS>ATOM
      1 C1'        -1.4190   -1.2760   -0.4160 CT         1 OAU      0.348557
      2 C2'        -2.0860   -1.8660    0.8120 CT         1 OAU     -0.417759
      3 O4'        -2.2180   -0.3820   -1.1080 OH         1 OAU     -0.710823
      4 O4          3.5690    0.9640    0.1090 O          1 OAU     -0.590463
      5 C4          2.4570    0.5370    0.0690 C          1 OAU      0.626783
      6 N3          2.2010   -0.8200    0.0170 NA         1 OAU     -0.656746
      7 C2          0.9840   -1.4410   -0.0730 C          1 OAU      0.569227
      8 O2          0.8910   -2.6310   -0.1540 O          1 OAU     -0.608604
      9 N1         -0.1200   -0.6110   -0.0770 N*         1 OAU     -0.168359
     10 C6          0.0420    0.7520    0.0340 CM         1 OAU     -0.015563
     11 C5          1.2380    1.3420    0.0850 CM         1 OAU     -0.358446
     12 H1'        -1.1480   -2.0590   -1.1010 H2         1 OAU      0.089155
     13 H2'1       -2.9970   -2.3740    0.5100 HC         1 OAU      0.154342
     14 H2'2       -1.4290   -2.5910    1.2730 HC         1 OAU      0.154342
     15 H3          2.9910   -1.4320    0.0160 H          1 OAU      0.383006
     16 C16        -1.1740    1.6270    0.2390 C          1 OAU      0.653282
     17 H5          1.3460    2.4000    0.2150 HA         1 OAU      0.203397
     18 H2'3       -2.3270   -1.0940    1.5320 HC         1 OAU      0.154342
     19 HHO4       -2.9000   -0.0430   -0.5410 HO         1 OAU      0.469934
     20 O8         -1.9760    1.4080    1.0800 O          1 OAU     -0.548063
     21 O10        -1.2350    2.7010   -0.5230 OH         1 OAU     -0.618833
     22 HO10       -0.5880    2.6880   -1.2180 HO         1 OAU      0.443266
@<TRIPOS>BOND
    1     1     2 1
    2     1     3 1
    3     1     9 1
    4     4     5 1
    5     5     6 1
    6     5    11 1
    7     6     7 1
    8     7     8 1
    9     7     9 1
   10     9    10 1
   11    10    11 1
   12    10    16 1
   13    16    20 1
   14    16    21 1
   15     1    12 1
   16     2    13 1
   17     2    14 1
   18     2    18 1
   19     3    19 1
   20     6    15 1
   21    11    17 1
   22    21    22 1
@<TRIPOS>SUBSTRUCTURE
      1 OAU               1 ****               0 ****  **** 
