@<TRIPOS>MOLECULE
modXNA-fragment:OBU:HEAD01:@N1:HEAD01STRIP:@C1',H1',C2',H2'1,H2'2,H2'3,O4',HHO4
   21    21     1     0     0
SMALL
USER_CHARGES


@<TRIPOS>ATOM
      1 C1'        -1.5010   -1.2270   -0.3480 CT         1 OBU     -5.347942
      2 C2'        -2.1310   -1.6400    0.9750 CT         1 OBU     -2.145124
      3 O4'        -2.3260   -0.4700   -1.1390 OH         1 OBU      2.143717
      4 O4          3.6220    0.7630    0.1150 O          1 OBU      0.672275
      5 C4          2.4660    0.4340    0.0550 C          1 OBU     -1.381570
      6 N3          2.1330   -0.9070    0.0070 NA         1 OBU      0.730238
      7 C2          0.8810   -1.4520   -0.0810 C          1 OBU     -1.065415
      8 O2          0.7510   -2.6520   -0.1200 O          1 OBU      0.220302
      9 N1         -0.1670   -0.5700   -0.1200 N*         1 OBU      3.207506
     10 C6          0.0610    0.8040   -0.0250 CM         1 OBU     -0.627232
     11 C5          1.3090    1.2950    0.0410 CM         1 OBU      0.871619
     12 H1'        -1.2600   -2.1080   -0.9130 H2         1 OBU      2.164727
     13 H2'1       -3.0610   -2.1630    0.7680 HC         1 OBU      1.336422
     14 H2'2       -1.4700   -2.3140    1.5080 HC         1 OBU      1.336422
     15 H3          2.8800   -1.5660    0.0290 H          1 OBU      0.361837
     16 C16        -1.1000    1.8500    0.1180 C          1 OBU     -1.059865
     17 H5          1.4510    2.3520    0.0950 HA         1 OBU     -0.158406
     18 H2'3       -2.3400   -0.7710    1.5820 HC         1 OBU      1.336422
     19 HHO4       -2.6140    0.2790   -0.6120 HO         1 OBU     -0.334479
     20 O8         -2.1360    1.4240    0.6470 O2         1 OBU      0.567515
     21 O10        -0.8180    2.9670   -0.2620 O2         1 OBU      0.567515
@<TRIPOS>BOND
    1     1     2 1
    2     1     3 1
    3     1     9 1
    4     4     5 1
    5     5     6 1
    6     5    11 1
    7     6     7 1
    8     7     8 1
    9     7     9 1
   10     9    10 1
   11    10    11 1
   12    10    16 1
   13    16    20 1
   14    16    21 1
   15     1    12 1
   16     2    13 1
   17     2    14 1
   18     2    18 1
   19     3    19 1
   20     6    15 1
   21    11    17 1
@<TRIPOS>SUBSTRUCTURE
      1 OBU               1 ****               0 ****  **** 
