@<TRIPOS>MOLECULE
modXNA-fragment:OHW:HEAD01:@N9:HEAD01STRIP:@C1',H1',O4',HHO4,C2',H2'1,H2'3,H2'2
   45    47     1     0     0
SMALL
USER_CHARGES


@<TRIPOS>ATOM
      1 O4'        -5.2830   -0.2610    1.6860 OH         1 OHW     -0.619755
      2 C1'        -5.1900   -0.3600    0.2940 CT         1 OHW      0.224293
      3 H1'        -5.2430    0.6220   -0.1530 H2         1 OHW      0.080473
      4 N9         -3.8800   -0.8930   -0.0110 N*         1 OHW      0.015372
      5 C8         -3.5830   -2.2270   -0.2490 CK         1 OHW      0.170200
      6 H8         -4.3430   -2.9760   -0.2280 H5         1 OHW      0.136522
      7 N7         -2.3540   -2.4370   -0.4950 NB         1 OHW     -0.561789
      8 C5         -1.7550   -1.2030   -0.4050 CB         1 OHW      0.091189
      9 C6         -0.3630   -0.8970   -0.6320 C          1 OHW      0.457990
     10 O6          0.5130   -1.6560   -0.9120 O          1 OHW     -0.538572
     11 N1         -0.1300    0.4830   -0.4910 N*         1 OHW     -0.123881
     12 C12         1.0730    1.2020   -0.6560 CA         1 OHW     -0.101002
     13 C2         -1.0710    1.4230   -0.1700 CB         1 OHW      0.241716
     14 N2         -0.6010    2.6130   -0.1210 NB         1 OHW     -0.601364
     15 C15         0.7450    2.4850   -0.4220 CC         1 OHW      0.324683
     16 N3         -2.3820    1.0760    0.0770 N*         1 OHW      0.000692
     17 C4         -2.6790   -0.2470   -0.0900 CB         1 OHW     -0.062499
     18 C2'        -6.3140   -1.2090   -0.2830 CT         1 OHW     -0.394008
     19 H2'1       -6.3760   -2.1700    0.2130 HC         1 OHW      0.152135
     20 HHO4       -6.1510    0.0300    1.9350 HO         1 OHW      0.425980
     21 H2'2       -7.2560   -0.6940   -0.1250 HC         1 OHW      0.152135
     22 H2'3       -6.1880   -1.3580   -1.3480 HC         1 OHW      0.152135
     23 C24        -3.2760    2.1090    0.5900 CT         1 OHW     -0.061992
     24 1H24       -2.6640    2.8960    0.9970 H1         1 OHW      0.079503
     25 2H24       -3.8980    1.6980    1.3680 H1         1 OHW      0.079503
     26 3H24       -3.8860    2.5270   -0.2030 H1         1 OHW      0.079503
     27 C27         1.5960    3.7150   -0.4410 CT         1 OHW     -0.376417
     28 1H27        2.6060    3.5100   -0.7730 HC         1 OHW      0.138777
     29 2H27        1.6450    4.1550    0.5500 HC         1 OHW      0.138777
     30 3H27        1.1660    4.4570   -1.1050 HC         1 OHW      0.138777
     31 C31         2.3890    0.5810   -1.0170 CT         1 OHW     -0.183155
     32 C32         3.0950   -0.1250    0.1510 CT         1 OHW      0.398280
     33 C33         4.4750   -0.6400   -0.2130 CM         1 OHW     -0.152610
     34 C34         5.4100   -1.1810    0.7830 C          1 OHW      0.632229
     35 O35         5.1250   -1.0090    2.0680 OH         1 OHW     -0.684607
     36 1H31        2.2580   -0.1310   -1.8180 HC         1 OHW      0.099831
     37 2H31        3.0300    1.3770   -1.3860 HC         1 OHW      0.099831
     38 O15         3.1800    0.7190    1.2880 OH         1 OHW     -0.741438
     39 H32         2.4750   -0.9500    0.4720 H1         1 OHW      0.088563
     40 5HO1        3.6490    1.5140    1.0640 HO         1 OHW      0.421049
     41 N41         4.7450   -1.0160   -1.5090 NT         1 OHW     -0.806000
     42 1H41        5.6650   -1.3870   -1.6290 H          1 OHW      0.378480
     43 2H41        4.4660   -0.4010   -2.2400 H          1 OHW      0.378480
     44 5HO3        4.3640   -0.4450    2.1830 HO         1 OHW      0.452193
     45 O45         6.4120   -1.7450    0.4500 O          1 OHW     -0.562842
@<TRIPOS>BOND
    1     1     2 1
    2     2     4 1
    3     2    18 1
    4     4     5 1
    5     4    17 1
    6     5     7 1
    7     7     8 1
    8     8     9 1
    9     8    17 1
   10     9    10 1
   11     9    11 1
   12    11    12 1
   13    11    13 1
   14    12    15 1
   15    12    31 1
   16    13    14 1
   17    13    16 1
   18    14    15 1
   19    15    27 1
   20    16    17 1
   21    16    23 1
   22    31    32 1
   23    32    33 1
   24    32    38 1
   25    33    34 1
   26    33    41 1
   27    34    35 1
   28    34    45 1
   29     1    20 1
   30     2     3 1
   31     5     6 1
   32    18    19 1
   33    18    21 1
   34    18    22 1
   35    23    24 1
   36    23    25 1
   37    23    26 1
   38    27    28 1
   39    27    29 1
   40    27    30 1
   41    31    36 1
   42    31    37 1
   43    32    39 1
   44    35    44 1
   45    38    40 1
   46    41    42 1
   47    41    43 1
@<TRIPOS>SUBSTRUCTURE
      1 OHW               1 ****               0 ****  **** 
