@<TRIPOS>MOLECULE
modXNA-fragment:OMU:HEAD01:@N1:HEAD01STRIP:@C1',H1',O4',HHO4,C2',H2'1,H2'3,H2'2
   29    29     1     0     0
SMALL
USER_CHARGES


@<TRIPOS>ATOM
      1 O4'         2.9300   -1.8020   -1.2500 OH         1 OMU     -0.724047
      2 C1'         2.9380   -1.2050    0.0120 CT         1 OMU      0.309081
      3 H1'         3.8950   -0.7540    0.2160 H2         1 OMU      0.069899
      4 N1          1.9840   -0.1010   -0.0650 N*         1 OMU     -0.143092
      5 C6          0.7540   -0.3000   -0.6560 CM         1 OMU     -0.064167
      6 H6          0.5820   -1.2700   -1.0680 H4         1 OMU      0.267483
      7 C5         -0.1720    0.6490   -0.7350 CM         1 OMU     -0.016431
      8 O5         -1.3380    0.4460   -1.4050 OS         1 OMU     -0.359562
      9 C4          0.0920    1.9690   -0.1690 C          1 OMU      0.614381
     10 O4         -0.6720    2.8890   -0.1510 O          1 OMU     -0.596721
     11 N3          1.3490    2.0690    0.3990 NA         1 OMU     -0.764336
     12 H3          1.5830    2.9490    0.8080 H          1 OMU      0.409860
     13 C2          2.3200    1.1040    0.4990 C          1 OMU      0.589467
     14 O2          3.3620    1.3130    1.0500 O          1 OMU     -0.616449
     15 C2'         2.5680   -2.1870    1.1130 CT         1 OMU     -0.404641
     16 H2'1        1.5860   -2.6120    0.9410 HC         1 OMU      0.148673
     17 HHO4        3.4280   -2.6080   -1.2260 HO         1 OMU      0.469432
     18 H2'2        3.2920   -2.9960    1.1520 HC         1 OMU      0.148673
     19 H2'3        2.5750   -1.6880    2.0750 HC         1 OMU      0.148673
     20 C8         -2.4990    0.3720   -0.6410 CT         1 OMU     -0.012872
     21 C8         -2.6650   -0.9970    0.0070 C          1 OMU      0.656912
     22 H81        -3.3220    0.5450   -1.3220 H1         1 OMU      0.078848
     23 H82        -2.5250    1.1510    0.1090 H1         1 OMU      0.078848
     24 O10        -3.7610   -1.1940    0.7330 OS         1 OMU     -0.461580
     25 O12        -1.8730   -1.8690   -0.1090 O          1 OMU     -0.614019
     26 C10        -4.7570   -0.2100    0.9190 CT         1 OMU      0.039079
     27 1H10       -5.5090   -0.6720    1.5370 H1         1 OMU      0.069452
     28 2H10       -5.2050    0.0850   -0.0210 H1         1 OMU      0.069452
     29 3H10       -4.3660    0.6610    1.4290 H1         1 OMU      0.069452
@<TRIPOS>BOND
    1     1     2 1
    2     2     4 1
    3     2    15 1
    4     4     5 1
    5     4    13 1
    6     5     7 1
    7     7     8 1
    8     7     9 1
    9     8    20 1
   10     9    10 1
   11     9    11 1
   12    11    13 1
   13    13    14 1
   14    20    21 1
   15    21    24 1
   16    21    25 1
   17    24    26 1
   18     1    17 1
   19     2     3 1
   20     5     6 1
   21    11    12 1
   22    15    16 1
   23    15    18 1
   24    15    19 1
   25    20    22 1
   26    20    23 1
   27    26    27 1
   28    26    28 1
   29    26    29 1
@<TRIPOS>SUBSTRUCTURE
      1 OMU               1 ****               0 ****  **** 
