@<TRIPOS>MOLECULE
modXNA-fragment:OMW:HEAD01:@N9:HEAD01STRIP:@C1',H1',O4',HHO4,C2',H2'1,H2'3,H2'2
   49    51     1     0     0
SMALL
USER_CHARGES


@<TRIPOS>ATOM
      1 O4'        -5.4650   -0.5470    1.7050 OH         1 OMW     -0.618520
      2 C1'        -5.3750   -0.5720    0.3100 CT         1 OMW      0.237612
      3 H1'        -5.4980    0.4240   -0.0900 H2         1 OMW      0.077355
      4 N9         -4.0350   -0.9990   -0.0270 N*         1 OMW      0.006715
      5 C8         -3.6460   -2.2980   -0.3220 CK         1 OMW      0.167253
      6 H8         -4.3510   -3.1000   -0.3210 H5         1 OMW      0.138337
      7 N7         -2.4100   -2.4080   -0.5910 NB         1 OMW     -0.569009
      8 C5         -1.8990   -1.1380   -0.4580 CB         1 OMW      0.122105
      9 C6         -0.5370   -0.7240   -0.6900 C          1 OMW      0.417488
     10 O6          0.3850   -1.4130   -1.0090 O          1 OMW     -0.534748
     11 N1         -0.4010    0.6620   -0.5030 N*         1 OMW     -0.121811
     12 C13        -1.4020    1.5190   -0.1310 CB         1 OMW      0.253377
     13 N2         -1.0180    2.7360   -0.0390 NB         1 OMW     -0.616341
     14 N3         -2.6810    1.0670    0.1210 N*         1 OMW     -0.001588
     15 C4         -2.8840   -0.2650   -0.0930 CB         1 OMW     -0.069674
     16 C2'        -6.4430   -1.4680   -0.3030 CT         1 OMW     -0.400152
     17 H2'1       -6.3150   -1.5560   -1.3750 HC         1 OMW      0.153162
     18 HHO4       -6.3470   -0.3210    1.9710 HO         1 OMW      0.422700
     19 H2'2       -7.4170   -1.0280   -0.1160 HC         1 OMW      0.153162
     20 H2'3       -6.4350   -2.4530    0.1460 HC         1 OMW      0.153162
     21 8C18       -3.6320    2.0080    0.7070 CT         1 OMW     -0.075755
     22 C23         0.3300    2.7180   -0.3610 CC         1 OMW      0.349579
     23 C24         0.7450    1.4740   -0.6540 CA         1 OMW     -0.110491
     24 1C24        1.0980    4.0000   -0.3310 CT         1 OMW     -0.509400
     25 8H18       -3.0650    2.8110    1.1480 H1         1 OMW      0.077548
     26 8H18       -4.2080    1.5130    1.4720 H1         1 OMW      0.077548
     27 8H18       -4.2850    2.4260   -0.0490 H1         1 OMW      0.077548
     28 1H24        2.1050    3.8780   -0.7090 HC         1 OMW      0.139899
     29 1H24        1.1630    4.3780    0.6850 HC         1 OMW      0.139899
     30 1H24        0.5970    4.7520   -0.9310 HC         1 OMW      0.139899
     31 C13         2.0920    0.9340   -1.0310 CT         1 OMW     -0.129119
     32 1H13        1.9780    0.2170   -1.8280 HC         1 OMW      0.053334
     33 C14         2.8450    0.3070    0.1520 CT         1 OMW      0.309737
     34 2H13        2.6850    1.7560   -1.4260 HC         1 OMW      0.053334
     35 C15         4.0670   -0.5120   -0.2870 CT         1 OMW      0.056054
     36 H14         2.1860   -0.3430    0.7040 H1         1 OMW      0.098203
     37 O17         3.2490    1.2990    1.0650 OH         1 OMW     -0.749116
     38 C16         4.7150   -1.1550    0.9420 C          1 OMW      0.613269
     39 H15         4.7670    0.1620   -0.7700 H1         1 OMW      0.057473
     40 N18         3.8170   -1.6170   -1.2010 NT         1 OMW     -0.924905
     41 7HO1        3.7430    1.9700    0.6140 HO         1 OMW      0.420263
     42 O18         6.0390   -1.2790    0.9860 OS         1 OMW     -0.481918
     43 O20         4.0610   -1.5890    1.8290 O          1 OMW     -0.582777
     44 1H18        3.5310   -1.2910   -2.1030 H          1 OMW      0.365673
     45 2H18        3.0770   -2.1970   -0.8510 H          1 OMW      0.365673
     46 C20         6.8750   -1.0020   -0.1140 CT         1 OMW      0.156707
     47 1H20        7.8420   -1.4040    0.1480 H1         1 OMW      0.018811
     48 2H20        6.9750    0.0660   -0.2730 H1         1 OMW      0.018811
     49 3H20        6.5150   -1.4810   -1.0120 H1         1 OMW      0.018811
@<TRIPOS>BOND
    1     1     2 1
    2     2     4 1
    3     2    16 1
    4     4     5 1
    5     4    15 1
    6     5     7 1
    7     7     8 1
    8     8     9 1
    9     8    15 1
   10     9    10 1
   11     9    11 1
   12    11    12 1
   13    11    23 1
   14    12    13 1
   15    12    14 1
   16    13    22 1
   17    14    15 1
   18    14    21 1
   19    22    23 1
   20    22    24 1
   21    23    31 1
   22    31    33 1
   23    33    35 1
   24    33    37 1
   25    35    38 1
   26    35    40 1
   27    38    42 1
   28    38    43 1
   29    42    46 1
   30     1    18 1
   31     2     3 1
   32     5     6 1
   33    16    17 1
   34    16    19 1
   35    16    20 1
   36    21    25 1
   37    21    26 1
   38    21    27 1
   39    24    28 1
   40    24    29 1
   41    24    30 1
   42    31    32 1
   43    31    34 1
   44    33    36 1
   45    35    39 1
   46    37    41 1
   47    40    44 1
   48    40    45 1
   49    46    47 1
   50    46    48 1
   51    46    49 1
@<TRIPOS>SUBSTRUCTURE
      1 OMW               1 ****               0 ****  **** 
