@<TRIPOS>MOLECULE
modXNA-fragment:ONE:HEAD01:@N1:HEAD01STRIP:@C1',H1',O4',HHO4,C2',H2'1,H2'3,H2'2
   19    19     1     0     0
SMALL
USER_CHARGES


@<TRIPOS>ATOM
      1 O4'         2.4780    0.5530    1.0760 OH         1 ONE     -0.684053
      2 C1'         1.9730   -0.3520    0.1420 CT         1 ONE      0.329287
      3 H1'         2.1650   -1.3680    0.4660 H2         1 ONE     -0.003651
      4 N1          0.5310   -0.1950    0.1390 N*         1 ONE      0.012289
      5 C6         -0.0360    1.0430   -0.0200 CA         1 ONE     -0.026092
      6 H6          0.6550    1.8600   -0.0470 H4         1 ONE      0.169183
      7 C5         -1.3580    1.2250   -0.1130 CA         1 ONE     -0.376081
      8 H5         -1.7610    2.2120   -0.2280 HA         1 ONE      0.197225
      9 C4         -2.2910    0.0980   -0.0500 C          1 ONE      0.640785
     10 O10        -3.4870    0.2210   -0.1430 O          1 ONE     -0.654657
     11 C13        -1.6270   -1.1920    0.1430 CA         1 ONE     -0.376081
     12 C2         -0.2950   -1.2820    0.2270 CA         1 ONE     -0.026092
     13 C2'         2.5830   -0.1390   -1.2380 CT         1 ONE     -0.275856
     14 H2'1        2.1590   -0.8360   -1.9510 HC         1 ONE      0.100412
     15 HHO4        3.4180    0.6280    0.9810 HO         1 ONE      0.440927
     16 H2'2        2.4000    0.8700   -1.5890 HC         1 ONE      0.100412
     17 H2'3        3.6570   -0.3010   -1.2060 HC         1 ONE      0.100412
     18 H13        -2.2360   -2.0720    0.2240 HA         1 ONE      0.197225
     19 H2          0.1980   -2.2240    0.3710 H4         1 ONE      0.169183
@<TRIPOS>BOND
    1     1     2 1
    2     2     4 1
    3     2    13 1
    4     4     5 1
    5     4    12 1
    6     5     7 1
    7     7     9 1
    8     9    10 1
    9     9    11 1
   10    11    12 1
   11     1    15 1
   12     2     3 1
   13     5     6 1
   14     7     8 1
   15    11    18 1
   16    12    19 1
   17    13    14 1
   18    13    16 1
   19    13    17 1
@<TRIPOS>SUBSTRUCTURE
      1 ONE               1 ****               0 ****  **** 
