@<TRIPOS>MOLECULE
modXNA-fragment:P5P:HEAD01:@N9:HEAD01STRIP:@C1',H1',O4',HHO4,C2',H2'1,H2'3,H2'2
   20    21     1     0     0
SMALL
USER_CHARGES


@<TRIPOS>ATOM
      1 O4'        -2.9690    0.2770   -0.8400 OH         1 P5P     -0.726976
      2 C1'        -2.0200   -0.5600   -0.2550 CT         1 P5P      0.313059
      3 H1'        -1.7520   -1.3690   -0.9230 H2         1 P5P      0.067214
      4 N9         -0.8290    0.2510   -0.1010 N*         1 P5P     -0.222808
      5 C8         -0.7480    1.6070    0.1090 CK         1 P5P      0.255437
      6 H8         -1.6340    2.2040    0.1410 H5         1 P5P      0.150343
      7 N7          0.4450    2.0540    0.2350 NB         1 P5P     -0.657149
      8 C5          1.2460    0.9340    0.1070 CB         1 P5P      0.034818
      9 C6          2.6070    0.7150    0.1410 CA         1 P5P      0.262309
     10 N1          3.0820   -0.5100   -0.0180 NC         1 P5P     -0.774072
     11 C2          2.2210   -1.4990   -0.2070 CQ         1 P5P      0.527075
     12 H2          2.6450   -2.4780   -0.3310 H5         1 P5P      0.029371
     13 N3          0.9040   -1.4230   -0.2580 NC         1 P5P     -0.793695
     14 C4          0.4590   -0.1950   -0.1020 CB         1 P5P      0.438601
     15 C2'        -2.4950   -1.1220    1.0770 CT         1 P5P     -0.351192
     16 H2'1       -2.7480   -0.3150    1.7560 HC         1 P5P      0.131618
     17 HHO4       -3.8030   -0.1690   -0.8910 HO         1 P5P      0.474822
     18 H2'2       -3.3750   -1.7440    0.9310 HC         1 P5P      0.131618
     19 H2'3       -1.7220   -1.7350    1.5240 HC         1 P5P      0.131618
     20 H6          3.3140    1.5090    0.2960 H4         1 P5P      0.110586
@<TRIPOS>BOND
    1     1     2 1
    2     2     4 1
    3     2    15 1
    4     4     5 1
    5     4    14 1
    6     5     7 1
    7     7     8 1
    8     8     9 1
    9     8    14 1
   10     9    10 1
   11    10    11 1
   12    11    13 1
   13    13    14 1
   14     1    17 1
   15     2     3 1
   16     5     6 1
   17     9    20 1
   18    11    12 1
   19    15    16 1
   20    15    18 1
   21    15    19 1
@<TRIPOS>SUBSTRUCTURE
      1 P5P               1 ****               0 ****  **** 
