@<TRIPOS>MOLECULE
modXNA-fragment:PPC:HEAD01:@N1:HEAD01STRIP:@C1',H1',O4',HHO4,C2',H2'1,H2'3,H2'2
   32    34     1     0     0
SMALL
USER_CHARGES


@<TRIPOS>ATOM
      1 O4'         4.2860   -1.8930   -0.3910 OH         1 PPC     -0.757462
      2 C1'         4.2770   -0.5300   -0.0710 CT         1 PPC      0.380051
      3 H1'         4.7910    0.0420   -0.8260 H2         1 PPC      0.034552
      4 N1          2.8750   -0.1040   -0.1210 N*         1 PPC     -0.318978
      5 C6          1.8750   -0.9930    0.0840 CM         1 PPC      0.020459
      6 H6          2.1680   -2.0080    0.2520 H4         1 PPC      0.238525
      7 C5          0.5990   -0.5630    0.0450 CB         1 PPC     -0.118752
      8 C8         -0.7340   -1.1280    0.1700 C*         1 PPC     -0.273310
      9 C4          0.4340    0.8330   -0.2190 CB         1 PPC      0.544538
     10 N4         -0.8950    1.0730   -0.2230 NA         1 PPC     -0.496225
     11 H4         -1.2920    1.9350   -0.5190 H          1 PPC      0.371283
     12 C12        -1.6020   -0.1210   -0.0080 CC         1 PPC      0.065457
     13 N3          1.3620    1.7070   -0.4260 NC         1 PPC     -0.855768
     14 C2          2.6480    1.2750   -0.3660 C          1 PPC      0.727958
     15 O2          3.6090    1.9860   -0.5010 O          1 PPC     -0.668552
     16 C2'         4.8880   -0.2720    1.2970 CT         1 PPC     -0.323029
     17 H2'1        4.8420    0.7830    1.5330 HC         1 PPC      0.115448
     18 HHO4        5.1830   -2.1900   -0.4520 HO         1 PPC      0.471699
     19 H2'2        5.9310   -0.5770    1.3020 HC         1 PPC      0.115448
     20 H2'3        4.3600   -0.8390    2.0570 HC         1 PPC      0.115448
     21 C21        -3.0750   -0.1210    0.0300 CA         1 PPC      0.092030
     22 C22        -3.7770    0.9710    0.5340 CA         1 PPC     -0.117672
     23 C23        -5.1610    0.9580    0.5790 CA         1 PPC     -0.116802
     24 C24        -5.8620   -0.1460    0.1240 CA         1 PPC     -0.094495
     25 C25        -5.1720   -1.2380   -0.3800 CA         1 PPC     -0.116802
     26 C26        -3.7900   -1.2240   -0.4320 CA         1 PPC     -0.117672
     27 H8         -0.9830   -2.1420    0.4040 HA         1 PPC      0.205228
     28 H22        -3.2440    1.8240    0.9150 HA         1 PPC      0.134038
     29 H23        -5.6880    1.8070    0.9750 HA         1 PPC      0.147718
     30 H24        -6.9370   -0.1560    0.1590 HA         1 PPC      0.139578
     31 H25        -5.7090   -2.0950   -0.7430 HA         1 PPC      0.147718
     32 H26        -3.2610   -2.0610   -0.8480 HA         1 PPC      0.134038
@<TRIPOS>BOND
    1     1     2 1
    2     2     4 1
    3     2    16 1
    4     4     5 1
    5     4    14 1
    6     5     7 1
    7     7     8 1
    8     7     9 1
    9     8    12 1
   10     9    10 1
   11     9    13 1
   12    10    12 1
   13    12    21 1
   14    13    14 1
   15    14    15 1
   16    21    22 1
   17    21    26 1
   18    22    23 1
   19    23    24 1
   20    24    25 1
   21    25    26 1
   22     1    18 1
   23     2     3 1
   24     5     6 1
   25     8    27 1
   26    10    11 1
   27    16    17 1
   28    16    19 1
   29    16    20 1
   30    22    28 1
   31    23    29 1
   32    24    30 1
   33    25    31 1
   34    26    32 1
@<TRIPOS>SUBSTRUCTURE
      1 PPC               1 ****               0 ****  **** 
