@<TRIPOS>MOLECULE
modXNA-fragment:PQG:HEAD01:@N9:HEAD01STRIP:@C1',H1',O4',HHO4,C2',H2'1,H2'3,H2'2
   29    30     1     0     0
SMALL
USER_CHARGES


@<TRIPOS>ATOM
      1 O4'        -2.4470   -2.1850   -1.1520 OH         1 PQG     -0.712547
      2 C1'        -1.5540   -2.1600   -0.0740 CT         1 PQG      0.422168
      3 H1'        -0.7240   -2.8290   -0.2530 H2         1 PQG     -0.009410
      4 N9         -0.9950   -0.8340   -0.0280 N*         1 PQG     -0.105536
      5 C8         -1.7240    0.3530    0.0340 CA         1 PQG     -0.213519
      6 H8         -2.7910    0.3340    0.0220 H4         1 PQG      0.219279
      7 C7         -0.8820    1.4030    0.0740 C*         1 PQG      0.039427
      8 C5          0.4450    0.8440    0.0350 CB         1 PQG     -0.440257
      9 C6          1.7580    1.4060    0.0590 C          1 PQG      0.695607
     10 O6          2.1050    2.5540    0.1270 O          1 PQG     -0.664871
     11 N1          2.7420    0.3980   -0.0010 NA         1 PQG     -0.608829
     12 H1          3.6790    0.7270    0.0900 H          1 PQG      0.409940
     13 C2          2.4950   -0.9360   -0.0620 CA         1 PQG      0.727317
     14 N2          3.5940   -1.7500   -0.0580 N2         1 PQG     -0.982858
     15 H21         4.4140   -1.4110   -0.5110 H          1 PQG      0.410423
     16 H22         3.3800   -2.7000   -0.2690 H          1 PQG      0.410423
     17 N3          1.3170   -1.4480   -0.0850 NC         1 PQG     -0.773956
     18 C4          0.3150   -0.5260   -0.0290 CB         1 PQG      0.412645
     19 C2'        -2.2460   -2.5300    1.2320 CT         1 PQG     -0.347793
     20 H2'1       -3.0680   -1.8540    1.4350 HC         1 PQG      0.119101
     21 HHO4       -2.9020   -3.0160   -1.1660 HO         1 PQG      0.436252
     22 H2'2       -2.6390   -3.5420    1.1760 HC         1 PQG      0.119101
     23 H2'3       -1.5440   -2.4860    2.0560 HC         1 PQG      0.119101
     24 C24        -1.2390    2.8600    0.1440 CT         1 PQG      0.291086
     25 N25        -2.6480    3.0630   -0.1660 NT         1 PQG     -1.050265
     26 1H24       -1.0630    3.2230    1.1510 H1         1 PQG      0.003800
     27 2H24       -0.5660    3.4200   -0.5020 H1         1 PQG      0.003800
     28 1H25       -2.9060    4.0160    0.0030 H          1 PQG      0.380788
     29 2H25       -2.8170    2.8810   -1.1370 H          1 PQG      0.380788
@<TRIPOS>BOND
    1     1     2 1
    2     2     4 1
    3     2    19 1
    4     4     5 1
    5     4    18 1
    6     5     7 1
    7     7     8 1
    8     7    24 1
    9     8     9 1
   10     8    18 1
   11     9    10 1
   12     9    11 1
   13    11    13 1
   14    13    14 1
   15    13    17 1
   16    17    18 1
   17    24    25 1
   18     1    21 1
   19     2     3 1
   20     5     6 1
   21    11    12 1
   22    14    15 1
   23    14    16 1
   24    19    20 1
   25    19    22 1
   26    19    23 1
   27    24    26 1
   28    24    27 1
   29    25    28 1
   30    25    29 1
@<TRIPOS>SUBSTRUCTURE
      1 PQG               1 ****               0 ****  **** 
