@<TRIPOS>MOLECULE
modXNA-fragment:PSU:HEAD01:@N1:HEAD01STRIP:@C1',H1',C2',H2'1,H2'2,H2'3,O4',HHO4
   25    25     1     0     0
SMALL
USER_CHARGES


@<TRIPOS>ATOM
      1 C1'         1.4170    1.2050   -0.3730 CT         1 PSU      0.308415
      2 C2'         2.3870    1.2620    0.7900 CT         1 PSU     -0.183129
      3 O4'         2.0820    0.8120   -1.5260 OH         1 PSU     -0.674134
      4 O4         -3.1520   -1.8180   -0.1770 O          1 PSU     -0.579212
      5 C4         -2.1040   -1.2470   -0.1460 C          1 PSU      0.494158
      6 N3         -2.0540    0.1210    0.0910 NA         1 PSU     -0.105296
      7 C2         -0.9700    0.9220    0.1020 CA         1 PSU     -0.153171
      8 S8         -1.2020    2.5610    0.4080 S          1 PSU     -0.378105
      9 N1          0.2340    0.3210   -0.1290 N*         1 PSU      0.375959
     10 C6          0.3160   -1.0780   -0.2520 CM         1 PSU     -0.086027
     11 C5         -0.7900   -1.8270   -0.2970 CM         1 PSU     -0.302524
     12 H1'         0.9940    2.1810   -0.5050 H2         1 PSU      0.008190
     13 H2'1        3.1270    2.0240    0.5760 HC         1 PSU      0.073239
     14 H2'2        1.8570    1.5380    1.6930 HC         1 PSU      0.073239
     15 H3         -2.9290    0.5730    0.2570 H          1 PSU      0.246952
     16 C16         1.6570   -1.7920   -0.2530 CT         1 PSU     -0.039382
     17 H5         -0.7290   -2.8920   -0.3960 HA         1 PSU      0.208170
     18 H2'3        2.9050    0.3290    0.9510 HC         1 PSU      0.073239
     19 HHO4        1.5960    1.0960   -2.2890 HO         1 PSU      0.421435
     20 H161        2.4500   -1.1610   -0.6080 HC         1 PSU      0.083272
     21 H162        1.5760   -2.6070   -0.9620 HC         1 PSU      0.083272
     22 C10         1.9920   -2.3690    1.1310 CT         1 PSU     -0.024265
     23 H101        2.9680   -2.8420    1.1040 HC         1 PSU      0.023754
     24 H102        1.2640   -3.1140    1.4310 HC         1 PSU      0.023754
     25 H103        2.0130   -1.6020    1.8960 HC         1 PSU      0.023754
@<TRIPOS>BOND
    1     1     2 1
    2     1     3 1
    3     1     9 1
    4     4     5 1
    5     5     6 1
    6     5    11 1
    7     6     7 1
    8     7     8 1
    9     7     9 1
   10     9    10 1
   11    10    11 1
   12    10    16 1
   13    16    22 1
   14     1    12 1
   15     2    13 1
   16     2    14 1
   17     2    18 1
   18     3    19 1
   19     6    15 1
   20    11    17 1
   21    16    20 1
   22    16    21 1
   23    22    23 1
   24    22    24 1
   25    22    25 1
@<TRIPOS>SUBSTRUCTURE
      1 PSU               1 ****               0 ****  **** 
