@<TRIPOS>MOLECULE
modXNA-fragment:PTU:HEAD01:@N1:HEAD01STRIP:@C1',H1',C2',H2'1,H2'2,H2'3,O4',HHO4
   28    28     1     0     0
SMALL
USER_CHARGES


@<TRIPOS>ATOM
      1 C1'         0.1280   -1.8440    0.4280 CT         1 PTU      0.330047
      2 C2'         1.0010   -2.4110   -0.6730 CT         1 PTU     -0.254193
      3 O4'         0.7900   -1.9180    1.6450 OH         1 PTU     -0.673064
      4 O4         -1.9380    3.2260    0.1450 O          1 PTU     -0.582060
      5 C4         -1.3890    2.1660    0.1440 C          1 PTU      0.510706
      6 N3         -2.0890    1.0100   -0.1800 NA         1 PTU     -0.124333
      7 C2         -1.6400   -0.2600   -0.1770 CA         1 PTU     -0.148379
      8 S8         -2.7190   -1.4800   -0.6070 S          1 PTU     -0.378422
      9 N1         -0.3330   -0.4430    0.1710 N*         1 PTU      0.359979
     10 C6          0.5040    0.6650    0.3940 CM         1 PTU     -0.037160
     11 C5          0.0050    1.9050    0.4180 CM         1 PTU     -0.331690
     12 H1'        -0.7770   -2.4160    0.4660 H2         1 PTU      0.005212
     13 H2'1        1.1690   -3.4610   -0.4640 HC         1 PTU      0.096983
     14 H2'2        0.4910   -2.3250   -1.6240 HC         1 PTU      0.096983
     15 H3         -3.0480    1.1310   -0.4320 H          1 PTU      0.251195
     16 C16         2.0080    0.5030    0.5290 CT         1 PTU     -0.199467
     17 H5          0.6400    2.7500    0.5930 HA         1 PTU      0.214334
     18 H2'3        1.9630   -1.9250   -0.7380 HC         1 PTU      0.096983
     19 HHO4        0.1620   -1.8960    2.3550 HO         1 PTU      0.422444
     20 H161        2.2790   -0.4720    0.8910 HC         1 PTU      0.125689
     21 H162        2.3330    1.2090    1.2850 HC         1 PTU      0.125689
     22 C10         2.7400    0.8190   -0.7880 CT         1 PTU      0.222278
     23 C3          4.2480    0.6100   -0.6610 CT         1 PTU     -0.239348
     24 H101        2.5350    1.8460   -1.0730 HC         1 PTU     -0.035539
     25 H102        2.3500    0.1990   -1.5900 HC         1 PTU     -0.035539
     26 H4          4.7510    0.8560   -1.5900 HC         1 PTU      0.075719
     27 H6          4.4850   -0.4220   -0.4190 HC         1 PTU      0.075719
     28 H103        4.6670    1.2380    0.1190 HC         1 PTU      0.075719
@<TRIPOS>BOND
    1     1     2 1
    2     1     3 1
    3     1     9 1
    4     4     5 1
    5     5     6 1
    6     5    11 1
    7     6     7 1
    8     7     8 1
    9     7     9 1
   10     9    10 1
   11    10    11 1
   12    10    16 1
   13    16    22 1
   14    22    23 1
   15     1    12 1
   16     2    13 1
   17     2    14 1
   18     2    18 1
   19     3    19 1
   20     6    15 1
   21    11    17 1
   22    16    20 1
   23    16    21 1
   24    22    24 1
   25    22    25 1
   26    23    26 1
   27    23    27 1
   28    23    28 1
@<TRIPOS>SUBSTRUCTURE
      1 PTU               1 ****               0 ****  **** 
