@<TRIPOS>MOLECULE
modXNA-fragment:PUU:HEAD01:@C1:HEAD01STRIP:@C1',H1',O4',HHO4,C2',H2'1,H2'3,H2'2
   19    19     1     0     0
SMALL
USER_CHARGES


@<TRIPOS>ATOM
      1 O4'        -2.6290   -1.2710    0.5600 OH         1 PUU     -0.695231
      2 C1'        -2.0720   -0.0180    0.2390 CT         1 PUU      0.392990
      3 H1'        -2.3080    0.7050    1.0130 H1         1 PUU     -0.003632
      4 C1         -0.5620   -0.1140    0.1350 CM         1 PUU     -0.330057
      5 C6          0.0860   -1.2630   -0.0400 CM         1 PUU      0.094238
      6 H6         -0.4340   -2.1990   -0.1050 H4         1 PUU      0.172312
      7 N5          1.4540   -1.3370   -0.1480 NA         1 PUU     -0.547392
      8 H5          1.9110   -2.2120   -0.2790 H          1 PUU      0.364333
      9 C4          2.2770   -0.2440   -0.0900 C          1 PUU      0.628142
     10 O4          3.4650   -0.3130   -0.1850 O          1 PUU     -0.622147
     11 N3          1.6000    0.9360    0.0910 NA         1 PUU     -0.622056
     12 H3          2.1650    1.7570    0.1400 H          1 PUU      0.361837
     13 C2          0.2310    1.1180    0.2120 C          1 PUU      0.607616
     14 O2         -0.2230    2.2150    0.3680 O          1 PUU     -0.601559
     15 C2'        -2.7130    0.4390   -1.0630 CT         1 PUU     -0.253660
     16 H2'1       -2.5200   -0.2860   -1.8470 HC         1 PUU      0.096528
     17 HHO4       -2.4890   -1.4510    1.4800 HO         1 PUU      0.404913
     18 H2'2       -3.7850    0.5290   -0.9330 HC         1 PUU      0.096528
     19 H2'3       -2.3140    1.4000   -1.3650 HC         1 PUU      0.096528
@<TRIPOS>BOND
    1     1     2 1
    2     2     4 1
    3     2    15 1
    4     4     5 1
    5     4    13 1
    6     5     7 1
    7     7     9 1
    8     9    10 1
    9     9    11 1
   10    11    13 1
   11    13    14 1
   12     1    17 1
   13     2     3 1
   14     5     6 1
   15     7     8 1
   16    11    12 1
   17    15    16 1
   18    15    18 1
   19    15    19 1
@<TRIPOS>SUBSTRUCTURE
      1 PUU               1 ****               0 ****  **** 
