@<TRIPOS>MOLECULE
modXNA-fragment:PVU:HEAD01:@N1:HEAD01STRIP:@C1',H1',C2',H2'1,H2'2,H2'3,O4',HHO4
   22    22     1     0     0
SMALL
USER_CHARGES


@<TRIPOS>ATOM
      1 C1'         1.8890    0.1800   -0.1020 CT         1 PVU      0.358006
      2 C2'         2.4990    0.0790    1.2830 CT         1 PVU     -0.173484
      3 O4'         2.5310   -0.6840   -0.9720 OH         1 PVU     -0.681152
      4 O4         -3.5610   -0.5380    0.1170 O          1 PVU     -0.586528
      5 C4         -2.3710   -0.4710    0.0630 C          1 PVU      0.552581
      6 N3         -1.7360    0.7610   -0.0210 NA         1 PVU     -0.204287
      7 C2         -0.4140    1.0130   -0.0790 CA         1 PVU     -0.045516
      8 S8          0.0770    2.6240   -0.1260 S          1 PVU     -0.388767
      9 N1          0.4130   -0.0730   -0.0880 N*         1 PVU      0.099718
     10 C6         -0.1170   -1.3730   -0.0060 CM         1 PVU      0.187932
     11 C5         -1.4360   -1.5730    0.0710 CM         1 PVU     -0.396027
     12 H1'         1.9870    1.1900   -0.4460 H2         1 PVU     -0.005572
     13 H2'1        3.5540    0.3130    1.2130 HC         1 PVU      0.072368
     14 H2'2        2.0270    0.8000    1.9390 HC         1 PVU      0.072368
     15 H3         -2.3300    1.5640   -0.0170 H          1 PVU      0.260936
     16 C16         0.7890   -2.5820   -0.0430 CT         1 PVU     -0.402004
     17 H5         -1.8430   -2.5620    0.1300 HA         1 PVU      0.217621
     18 H2'3        2.3980   -0.9060    1.7160 HC         1 PVU      0.072368
     19 HHO4        2.4230   -0.3770   -1.8630 HO         1 PVU      0.429170
     20 H161        1.6340   -2.5030    0.6200 HC         1 PVU      0.178178
     21 H162        1.1760   -2.7390   -1.0390 HC         1 PVU      0.178178
     22 H163        0.2050   -3.4440    0.2450 HC         1 PVU      0.178178
@<TRIPOS>BOND
    1     1     2 1
    2     1     3 1
    3     1     9 1
    4     4     5 1
    5     5     6 1
    6     5    11 1
    7     6     7 1
    8     7     8 1
    9     7     9 1
   10     9    10 1
   11    10    11 1
   12    10    16 1
   13     1    12 1
   14     2    13 1
   15     2    14 1
   16     2    18 1
   17     3    19 1
   18     6    15 1
   19    11    17 1
   20    16    20 1
   21    16    21 1
   22    16    22 1
@<TRIPOS>SUBSTRUCTURE
      1 PVU               1 ****               0 ****  **** 
