@<TRIPOS>MOLECULE
modXNA-fragment:PWU:HEAD01:@N1:HEAD01STRIP:@C1',H1',C2',H2'1,H2'2,H2'3,O4',HHO4
   31    31     1     0     0
SMALL
USER_CHARGES


@<TRIPOS>ATOM
      1 C1'         0.4710   -1.8910   -0.4560 CT         1 PWU      0.321563
      2 C2'        -0.4790   -2.5160    0.5460 CT         1 PWU     -0.271933
      3 O4'        -0.0120   -2.0700   -1.7430 OH         1 PWU     -0.659353
      4 O4          1.9590    3.3750   -0.1290 O          1 PWU     -0.583172
      5 C4          1.5240    2.2630   -0.1520 C          1 PWU      0.518668
      6 N3          2.2880    1.1980    0.3100 NA         1 PWU     -0.136052
      7 C2          1.9730   -0.1120    0.3050 CA         1 PWU     -0.138454
      8 S8          3.1020   -1.1970    0.9240 S          1 PWU     -0.379178
      9 N1          0.7490   -0.4430   -0.2010 N*         1 PWU      0.324508
     10 C6         -0.1590    0.5640   -0.5770 CM         1 PWU      0.038899
     11 C5          0.2110    1.8480   -0.5910 CM         1 PWU     -0.358798
     12 H1'         1.4270   -2.3650   -0.3510 H2         1 PWU      0.010947
     13 H2'1       -0.5100   -3.5830    0.3620 HC         1 PWU      0.104460
     14 H2'2       -0.1110   -2.3480    1.5510 HC         1 PWU      0.104460
     15 H3          3.1870    1.4270    0.6790 H          1 PWU      0.253029
     16 C16        -1.6070    0.2400   -0.8970 CT         1 PWU     -0.261810
     17 H5         -0.4760    2.6160   -0.8820 HA         1 PWU      0.222172
     18 H2'3       -1.4850   -2.1330    0.4660 HC         1 PWU      0.104460
     19 HHO4        0.6990   -2.0010   -2.3670 HO         1 PWU      0.418220
     20 H161       -1.7270   -0.7680   -1.2500 HC         1 PWU      0.135328
     21 H162       -1.8990    0.8860   -1.7170 HC         1 PWU      0.135328
     22 C10        -2.5330    0.5130    0.3020 CT         1 PWU      0.098051
     23 C3         -3.9850    0.1380    0.0030 CT         1 PWU      0.070416
     24 H101       -2.4760    1.5650    0.5650 HC         1 PWU     -0.004125
     25 H102       -2.1870   -0.0360    1.1740 HC         1 PWU     -0.004125
     26 C12        -4.9240    0.4350    1.1710 CT         1 PWU     -0.194584
     27 H4         -4.0420   -0.9190   -0.2480 HC         1 PWU     -0.000160
     28 H6         -4.3230    0.6780   -0.8790 HC         1 PWU     -0.000160
     29 H121       -5.9450    0.1580    0.9310 HC         1 PWU      0.062534
     30 H122       -4.9170    1.4920    1.4210 HC         1 PWU      0.062534
     31 H123       -4.6320   -0.1170    2.0600 HC         1 PWU      0.062534
@<TRIPOS>BOND
    1     1     2 1
    2     1     3 1
    3     1     9 1
    4     4     5 1
    5     5     6 1
    6     5    11 1
    7     6     7 1
    8     7     8 1
    9     7     9 1
   10     9    10 1
   11    10    11 1
   12    10    16 1
   13    16    22 1
   14    22    23 1
   15    23    26 1
   16     1    12 1
   17     2    13 1
   18     2    14 1
   19     2    18 1
   20     3    19 1
   21     6    15 1
   22    11    17 1
   23    16    20 1
   24    16    21 1
   25    22    24 1
   26    22    25 1
   27    23    27 1
   28    23    28 1
   29    26    29 1
   30    26    30 1
   31    26    31 1
@<TRIPOS>SUBSTRUCTURE
      1 PWU               1 ****               0 ****  **** 
