@<TRIPOS>MOLECULE
modXNA-fragment:PYO:HEAD01:@N1:HEAD01STRIP:@C1',H1',O4',HHO4,C2',H2'1,H2'3,H2'2
   18    18     1     0     0
SMALL
USER_CHARGES


@<TRIPOS>ATOM
      1 O4'        -2.0810   -1.1620    0.7220 OH         1 PYO     -0.748396
      2 C1'        -1.5830    0.0590    0.2580 CT         1 PYO      0.314345
      3 H1'        -1.7170    0.8330    0.9960 H2         1 PYO      0.047776
      4 N1         -0.1350   -0.1200    0.1140 N*         1 PYO     -0.311240
      5 C6          0.4060   -1.3400   -0.1090 CM         1 PYO      0.196474
      6 H6         -0.2840   -2.1560   -0.1510 H4         1 PYO      0.183888
      7 C5          1.7360   -1.4840   -0.2500 CM         1 PYO     -0.555385
      8 H5          2.1900   -2.4390   -0.4210 HA         1 PYO      0.235282
      9 C4          2.5030   -0.2910   -0.1320 CA         1 PYO      0.498243
     10 N3          2.0150    0.8780    0.0720 NC         1 PYO     -0.853927
     11 C2          0.6540    1.0360    0.1810 C          1 PYO      0.803566
     12 O2          0.1210    2.1000    0.3260 O          1 PYO     -0.674441
     13 C2'        -2.2270    0.4660   -1.0580 CT         1 PYO     -0.281281
     14 H2'1       -2.0790   -0.3090   -1.8030 HC         1 PYO      0.105526
     15 HHO4       -3.0070   -1.0730    0.9030 HO         1 PYO      0.480332
     16 H2'2       -3.2940    0.6120   -0.9200 HC         1 PYO      0.105526
     17 H2'3       -1.8010    1.3960   -1.4110 HC         1 PYO      0.105526
     18 H4          3.5770   -0.3490   -0.2130 H4         1 PYO      0.039985
@<TRIPOS>BOND
    1     1     2 1
    2     2     4 1
    3     2    13 1
    4     4     5 1
    5     4    11 1
    6     5     7 1
    7     7     9 1
    8     9    10 1
    9    10    11 1
   10    11    12 1
   11     1    15 1
   12     2     3 1
   13     5     6 1
   14     7     8 1
   15     9    18 1
   16    13    14 1
   17    13    16 1
   18    13    17 1
@<TRIPOS>SUBSTRUCTURE
      1 PYO               1 ****               0 ****  **** 
