@<TRIPOS>MOLECULE
modXNA-fragment:PYW:HEAD01:@N9:HEAD01STRIP:@C1',H1',O4',HHO4,C2',H2'1,H2'3,H2'2
   51    53     1     0     0
SMALL
USER_CHARGES


@<TRIPOS>ATOM
      1 O4'        -5.3900   -0.4610    1.8310 OH         1 PYW     -0.619800
      2 C1'        -5.3500   -0.6760    0.4510 CT         1 PYW      0.225238
      3 H1'        -5.5720    0.2400   -0.0770 H2         1 PYW      0.082570
      4 N9         -3.9890   -1.0380    0.1150 N*         1 PYW     -0.013299
      5 C8         -3.5020   -2.3310   -0.0180 CK         1 PYW      0.200410
      6 H8         -4.1400   -3.1780    0.1100 H5         1 PYW      0.131890
      7 N7         -2.2670   -2.3820   -0.3060 NB         1 PYW     -0.595549
      8 C5         -1.8590   -1.0680   -0.3620 CB         1 PYW      0.093552
      9 C6         -0.5420   -0.5850   -0.6710 C          1 PYW      0.434411
     10 O6          0.4280   -1.2590   -0.8900 O          1 PYW     -0.506378
     11 N1         -0.4990    0.8110   -0.6880 N*         1 PYW     -0.134596
     12 C13        -1.5610    1.6320   -0.3920 CB         1 PYW      0.253579
     13 N2         -1.2740    2.8740   -0.4630 NB         1 PYW     -0.623892
     14 N3         -2.7960    1.1230   -0.0430 N*         1 PYW      0.000757
     15 C4         -2.9050   -0.2330   -0.0830 CB         1 PYW     -0.040549
     16 C2'        -6.3570   -1.7330    0.0190 CT         1 PYW     -0.415468
     17 H2'1       -6.2600   -1.9620   -1.0350 HC         1 PYW      0.161303
     18 HHO4       -6.2780   -0.2730    2.1080 HO         1 PYW      0.429416
     19 H2'2       -7.3580   -1.3490    0.1860 HC         1 PYW      0.161303
     20 H2'3       -6.2500   -2.6400    0.5990 HC         1 PYW      0.161303
     21 8C18       -3.8160    2.0660    0.4130 CT         1 PYW     -0.095670
     22 C23         0.0590    2.9210   -0.8360 CC         1 PYW      0.371540
     23 C24         0.5760    1.6890   -0.9880 CA         1 PYW     -0.130938
     24 1C24        0.7150    4.2520   -1.0230 CT         1 PYW     -0.505213
     25 8H18       -3.3120    2.9660    0.7180 H1         1 PYW      0.086548
     26 8H18       -4.3450    1.6470    1.2530 H1         1 PYW      0.086548
     27 8H18       -4.5030    2.3120   -0.3880 H1         1 PYW      0.086548
     28 1H24        1.7300    4.1540   -1.3860 HC         1 PYW      0.143163
     29 1H24        0.7420    4.7950   -0.0840 HC         1 PYW      0.143163
     30 1H24        0.1510    4.8500   -1.7310 HC         1 PYW      0.143163
     31 C13         1.9620    1.2840   -1.4280 CT         1 PYW     -0.168232
     32 1H13        1.9340    0.3120   -1.8960 HC         1 PYW      0.111621
     33 C14         3.0400    1.3390   -0.3310 CT         1 PYW      0.064683
     34 2H13        2.2590    1.9810   -2.2030 HC         1 PYW      0.111621
     35 C16         2.9260    0.2410    0.7280 CT         1 PYW     -0.175418
     36 1H14        4.0180    1.2730   -0.7910 HC         1 PYW      0.038187
     37 2H14        2.9930    2.2930    0.1760 HC         1 PYW      0.038187
     38 C17         3.8000    0.5310    1.9520 C          1 PYW      0.627211
     39 N18         3.1200   -1.1170    0.2280 N          1 PYW     -0.467389
     40 H16         1.9160    0.2450    1.1280 H1         1 PYW      0.146335
     41 O18         4.0820   -0.5150    2.7140 OH         1 PYW     -0.622683
     42 O19         4.1090    1.6280    2.2680 O          1 PYW     -0.560711
     43 C21         4.3150   -1.4650   -0.3450 C          1 PYW      0.710997
     44 H18         2.2850   -1.5140   -0.1440 H          1 PYW      0.250105
     45 8HO1        3.8180   -1.3190    2.2820 HO         1 PYW      0.404309
     46 O20         4.3370   -2.5980   -1.0350 OS         1 PYW     -0.504297
     47 O21         5.3080   -0.8240   -0.2070 O          1 PYW     -0.627046
     48 C20         3.2120   -3.4420   -1.1740 CT         1 PYW      0.188693
     49 1H20        3.5630   -4.3010   -1.7230 H1         1 PYW      0.018000
     50 2H20        2.4190   -2.9600   -1.7290 H1         1 PYW      0.018000
     51 3H20        2.8420   -3.7620   -0.2080 H1         1 PYW      0.018000
@<TRIPOS>BOND
    1     1     2 1
    2     2     4 1
    3     2    16 1
    4     4     5 1
    5     4    15 1
    6     5     7 1
    7     7     8 1
    8     8     9 1
    9     8    15 1
   10     9    10 1
   11     9    11 1
   12    11    12 1
   13    11    23 1
   14    12    13 1
   15    12    14 1
   16    13    22 1
   17    14    15 1
   18    14    21 1
   19    22    23 1
   20    22    24 1
   21    23    31 1
   22    31    33 1
   23    33    35 1
   24    35    38 1
   25    35    39 1
   26    38    41 1
   27    38    42 1
   28    39    43 1
   29    43    46 1
   30    43    47 1
   31    46    48 1
   32     1    18 1
   33     2     3 1
   34     5     6 1
   35    16    17 1
   36    16    19 1
   37    16    20 1
   38    21    25 1
   39    21    26 1
   40    21    27 1
   41    24    28 1
   42    24    29 1
   43    24    30 1
   44    31    32 1
   45    31    34 1
   46    33    36 1
   47    33    37 1
   48    35    40 1
   49    39    44 1
   50    41    45 1
   51    48    49 1
   52    48    50 1
   53    48    51 1
@<TRIPOS>SUBSTRUCTURE
      1 PYW               1 ****               0 ****  **** 
