@<TRIPOS>MOLECULE
modXNA-fragment:PYY:HEAD01:@C4:HEAD01STRIP:@C1',H1',C2',1H2',2H2',3H2',O4','HO4
   19    19     1     0     0
SMALL
USER_CHARGES


@<TRIPOS>ATOM
      1 O4'         2.1910    0.9800    0.6940 OH         1 PYY     -0.683019
      2 C1'         1.6450   -0.2580    0.3100 CT         1 PYY      0.351017
      3 H1'         1.8410   -0.9950    1.0870 H1         1 PYY     -0.048881
      4 C4          0.1430   -0.0990    0.1800 CA         1 PYY     -0.009823
      5 C6         -0.4270    1.1170   -0.1710 CA         1 PYY     -0.096726
      6 H6          0.2030    1.9760   -0.3080 HA         1 PYY      0.130407
      7 C5         -1.7990    1.2290   -0.3280 CA         1 PYY     -0.131566
      8 H5         -2.2280    2.1790   -0.5970 HA         1 PYY      0.141225
      9 C9         -2.6190    0.1290   -0.1380 CA         1 PYY     -0.087686
     10 C13        -2.0580   -1.0870    0.2160 CA         1 PYY     -0.131566
     11 C2         -0.6870   -1.1960    0.3760 CA         1 PYY     -0.096726
     12 C2'         2.2760   -0.7430   -0.9950 CT         1 PYY     -0.228784
     13 1H2'        2.0970   -0.0230   -1.7860 HC         1 PYY      0.070982
     14 'HO4        3.1330    0.9040    0.7450 HO         1 PYY      0.413897
     15 2H2'        3.3510   -0.8670   -0.8790 HC         1 PYY      0.070982
     16 3H2'        1.8610   -1.6980   -1.2980 HC         1 PYY      0.070982
     17 H4         -3.6840    0.2190   -0.2580 HA         1 PYY      0.130027
     18 H13        -2.6850   -1.9460    0.3740 HA         1 PYY      0.141225
     19 H2         -0.2610   -2.1440    0.6610 HA         1 PYY      0.130407
@<TRIPOS>BOND
    1     1     2 1
    2     2     4 1
    3     2    12 1
    4     4     5 1
    5     4    11 1
    6     5     7 1
    7     7     9 1
    8     9    10 1
    9    10    11 1
   10     1    14 1
   11     2     3 1
   12     5     6 1
   13     7     8 1
   14     9    17 1
   15    10    18 1
   16    11    19 1
   17    12    13 1
   18    12    15 1
   19    12    16 1
@<TRIPOS>SUBSTRUCTURE
      1 PYY               1 ****               0 ****  **** 
