@<TRIPOS>MOLECULE
modXNA-fragment:QUE:HEAD01:@N9:HEAD01STRIP:@C1',H1',O4',HHO4,C2',H2'1,H2'3,H2'2
   42    44     1     0     0
SMALL
USER_CHARGES


@<TRIPOS>ATOM
      1 O4'        -3.0650   -2.7100    1.5600 OH         1 QUE     -0.716277
      2 C1'        -3.5380   -1.6520    0.7800 CT         1 QUE      0.387956
      3 H1'        -3.9510   -0.8710    1.4020 H2         1 QUE     -0.002028
      4 N9         -2.3800   -1.0810    0.1310 N*         1 QUE      0.067026
      5 C8         -1.3810   -1.7950   -0.5250 CA         1 QUE     -0.291114
      6 H8         -1.4090   -2.8630   -0.5300 H4         1 QUE      0.244645
      7 C7         -0.4720   -0.9530   -1.0520 C*         1 QUE     -0.069675
      8 C5         -0.9260    0.3750   -0.6960 CB         1 QUE     -0.242758
      9 C6         -0.4260    1.6960   -0.8730 C          1 QUE      0.601095
     10 O6          0.5850    2.0830   -1.4200 O          1 QUE     -0.652171
     11 N1         -1.2680    2.6580   -0.3030 NA         1 QUE     -0.576081
     12 H1         -0.9870    3.6010   -0.4630 H          1 QUE      0.411794
     13 C2         -2.4160    2.3940    0.3740 CA         1 QUE      0.724072
     14 N2         -3.1160    3.4760    0.8170 N2         1 QUE     -0.983004
     15 H21        -2.6030    4.2910    1.0720 H          1 QUE      0.415425
     16 H22        -3.8560    3.2450    1.4430 H          1 QUE      0.415425
     17 N3         -2.8660    1.2070    0.5700 NC         1 QUE     -0.740064
     18 C4         -2.0980    0.2260    0.0280 CB         1 QUE      0.283819
     19 C2'        -4.5780   -2.1190   -0.2300 CT         1 QUE     -0.328802
     20 H2'1       -4.1630   -2.8840   -0.8760 HC         1 QUE      0.111959
     21 HHO4       -3.7960   -3.1630    1.9580 HO         1 QUE      0.447939
     22 H2'2       -5.4420   -2.5330    0.2830 HC         1 QUE      0.111959
     23 H2'3       -4.9130   -1.2880   -0.8380 HC         1 QUE      0.111959
     24 C24         0.7190   -1.3630   -1.8930 CT         1 QUE      0.244950
     25 1H24        0.8860   -2.4250   -1.7440 H1         1 QUE      0.025436
     26 2H24        0.4640   -1.2410   -2.9420 H1         1 QUE      0.025436
     27 N11         1.9590   -0.6480   -1.6820 NT         1 QUE     -0.986098
     28 C12         2.5030   -0.6730   -0.3330 CT         1 QUE      0.368408
     29 H11         1.8250    0.3000   -1.9690 H          1 QUE      0.456331
     30 C30         3.5160    0.4630   -0.1170 CT         1 QUE     -0.020928
     31 C31         4.5100   -0.0820    0.9190 CT         1 QUE      0.500243
     32 C32         4.4420   -1.5650    0.6510 CM         1 QUE     -0.347578
     33 C33         3.3600   -1.8830   -0.0330 CM         1 QUE     -0.175791
     34 H12         1.7220   -0.5890    0.4220 H1         1 QUE      0.013049
     35 H30         4.0450    0.6080   -1.0560 H1         1 QUE      0.062011
     36 O15         2.9810    1.6740    0.3380 OH         1 QUE     -0.692743
     37 H31         5.5040    0.3300    0.7640 H1         1 QUE     -0.067392
     38 O17         4.0950    0.1880    2.2320 OH         1 QUE     -0.713448
     39 H32         5.1810   -2.2550    1.0160 HA         1 QUE      0.204199
     40 H33         3.0830   -2.8780   -0.3320 HA         1 QUE      0.186347
     41 5HO1        2.3100    1.9810   -0.2620 HO         1 QUE      0.439774
     42 7HO1        3.7310    1.0650    2.2390 HO         1 QUE      0.410649
@<TRIPOS>BOND
    1     1     2 1
    2     2     4 1
    3     2    19 1
    4     4     5 1
    5     4    18 1
    6     5     7 1
    7     7     8 1
    8     7    24 1
    9     8     9 1
   10     8    18 1
   11     9    10 1
   12     9    11 1
   13    11    13 1
   14    13    14 1
   15    13    17 1
   16    17    18 1
   17    24    27 1
   18    27    28 1
   19    28    30 1
   20    28    33 1
   21    30    31 1
   22    30    36 1
   23    31    32 1
   24    31    38 1
   25    32    33 1
   26     1    21 1
   27     2     3 1
   28     5     6 1
   29    11    12 1
   30    14    15 1
   31    14    16 1
   32    19    20 1
   33    19    22 1
   34    19    23 1
   35    24    25 1
   36    24    26 1
   37    27    29 1
   38    28    34 1
   39    30    35 1
   40    31    37 1
   41    32    39 1
   42    33    40 1
   43    36    41 1
   44    38    42 1
@<TRIPOS>SUBSTRUCTURE
      1 QUE               1 ****               0 ****  **** 
