@<TRIPOS>MOLECULE
modXNA-fragment:RAU:HEAD01:@N1:HEAD01STRIP:@C1',H1',C2',H2'1,H2'2,H2'3,O4',HHO4
   35    36     1     0     0
SMALL
USER_CHARGES


@<TRIPOS>ATOM
      1 C1'         3.0550   -1.1960   -0.3180 CT         1 RAU      0.240357
      2 C2'         3.4600   -1.8080    1.0140 CT         1 RAU     -0.247255
      3 O4'         2.4870   -2.1440   -1.1750 OH         1 RAU     -0.731187
      4 O4         -0.6290    2.7430    0.4190 O          1 RAU     -0.616916
      5 C4          0.1220    1.8260    0.2510 C          1 RAU      0.660746
      6 N3          1.4810    2.0600    0.1290 NA         1 RAU     -0.696889
      7 C2          2.4830    1.1460   -0.0500 C          1 RAU      0.563787
      8 O2          3.6370    1.4650   -0.1040 O          1 RAU     -0.619718
      9 N1          2.0500   -0.1500   -0.1500 N*         1 RAU     -0.084174
     10 C6          0.7090   -0.4760   -0.0330 CM         1 RAU     -0.032455
     11 C5         -0.2670    0.4110    0.1590 CM         1 RAU     -0.379688
     12 H1'         3.9030   -0.7210   -0.7830 H2         1 RAU      0.076057
     13 H2'1        3.8830   -1.0490    1.6610 HC         1 RAU      0.092061
     14 H2'2        4.2110   -2.5780    0.8620 HC         1 RAU      0.092061
     15 H3          1.7770    3.0110    0.2010 H          1 RAU      0.383673
     16 H6          0.5210   -1.5220   -0.1290 H4         1 RAU      0.243539
     17 C17        -1.7490    0.1040    0.2620 CT         1 RAU      0.227256
     18 H2'3        2.6040   -2.2590    1.5050 HC         1 RAU      0.092061
     19 HHO4        3.1200   -2.8260   -1.3540 HO         1 RAU      0.480234
     20 C20        -2.0770   -1.3250    0.7400 CT         1 RAU     -0.023007
     21 C21        -3.5360   -1.7250    0.4240 CT         1 RAU     -0.045603
     22 C22        -4.4540   -0.5060    0.3300 CT         1 RAU     -0.021890
     23 C23        -4.0200    0.4200   -0.8220 CT         1 RAU     -0.045603
     24 C24        -2.4940    0.3990   -1.0500 CT         1 RAU     -0.023007
     25 H20        -2.1330    0.7970    1.0020 HC         1 RAU      0.016439
     26 H21        -1.4230   -2.0530    0.2720 HC         1 RAU     -0.000415
     27 H22        -1.8920   -1.3890    1.8090 HC         1 RAU     -0.000415
     28 H23        -3.5700   -2.2580   -0.5230 HC         1 RAU      0.026546
     29 H24        -3.8960   -2.4190    1.1760 HC         1 RAU      0.026546
     30 H25        -5.4840   -0.8200    0.1890 HC         1 RAU      0.009357
     31 H26        -4.4280    0.0350    1.2730 HC         1 RAU      0.009357
     32 H27        -4.5210    0.1230   -1.7390 HC         1 RAU      0.026546
     33 H28        -4.3420    1.4340   -0.6090 HC         1 RAU      0.026546
     34 H29        -2.2290   -0.3640   -1.7790 HC         1 RAU     -0.000415
     35 H30        -2.1720    1.3480   -1.4610 HC         1 RAU     -0.000415
@<TRIPOS>BOND
    1     1     2 1
    2     1     3 1
    3     1     9 1
    4     4     5 1
    5     5     6 1
    6     5    11 1
    7     6     7 1
    8     7     8 1
    9     7     9 1
   10     9    10 1
   11    10    11 1
   12    11    17 1
   13    17    20 1
   14    17    24 1
   15    20    21 1
   16    21    22 1
   17    22    23 1
   18    23    24 1
   19     1    12 1
   20     2    13 1
   21     2    14 1
   22     2    18 1
   23     3    19 1
   24     6    15 1
   25    10    16 1
   26    17    25 1
   27    20    26 1
   28    20    27 1
   29    21    28 1
   30    21    29 1
   31    22    30 1
   32    22    31 1
   33    23    32 1
   34    23    33 1
   35    24    34 1
   36    24    35 1
@<TRIPOS>SUBSTRUCTURE
      1 RAU               1 ****               0 ****  **** 
