@<TRIPOS>MOLECULE
modXNA-fragment:RBU:HEAD01:@N1:HEAD01STRIP:@C1',H1',C2',H2'1,H2'2,H2'3,O4',HHO4
   29    30     1     0     0
SMALL
USER_CHARGES


@<TRIPOS>ATOM
      1 C1'         2.9340   -1.1710   -0.3410 CT         1 RBU      0.268484
      2 C2'         3.3050   -1.8140    0.9860 CT         1 RBU     -0.271917
      3 O4'         2.4130   -2.1000   -1.2440 OH         1 RBU     -0.693502
      4 O4         -0.8450    2.7080    0.3160 O          1 RBU     -0.590935
      5 C4         -0.0830    1.7990    0.1790 C          1 RBU      0.659104
      6 N3          1.2840    2.0400    0.1760 NA         1 RBU     -0.770463
      7 C2          2.3070    1.1460    0.0290 C          1 RBU      0.606773
      8 O2          3.4580    1.4750    0.0780 O          1 RBU     -0.620025
      9 N1          1.9000   -0.1490   -0.1730 N*         1 RBU     -0.143309
     10 C6          0.5650   -0.4870   -0.1690 CM         1 RBU     -0.005842
     11 C5         -0.4360    0.3830    0.0060 CM         1 RBU     -0.254673
     12 H1'         3.7870   -0.6640   -0.7610 H2         1 RBU      0.060910
     13 H2'1        3.6870   -1.0670    1.6710 HC         1 RBU      0.102155
     14 H2'2        4.0790   -2.5620    0.8370 HC         1 RBU      0.102155
     15 H3          1.5620    2.9890    0.3140 H          1 RBU      0.399611
     16 H6          0.3750   -1.5250   -0.3440 H4         1 RBU      0.192717
     17 C17        -1.8580   -0.0540    0.0260 CA         1 RBU      0.104456
     18 H2'3        2.4430   -2.2990    1.4300 HC         1 RBU      0.102155
     19 HHO4        3.0630   -2.7650   -1.4240 HO         1 RBU      0.461214
     20 C20        -2.2350   -1.1830    0.7470 CA         1 RBU     -0.128411
     21 C21        -3.5470   -1.6300    0.7340 CA         1 RBU     -0.113867
     22 C22        -4.5060   -0.9440    0.0100 CA         1 RBU     -0.100531
     23 C23        -4.1440    0.1920   -0.6980 CA         1 RBU     -0.113867
     24 C24        -2.8340    0.6340   -0.6920 CA         1 RBU     -0.128411
     25 H13        -1.5050   -1.7060    1.3380 HA         1 RBU      0.146091
     26 H15        -3.8170   -2.5040    1.2990 HA         1 RBU      0.141092
     27 H17        -5.5260   -1.2840    0.0040 HA         1 RBU      0.137031
     28 H19        -4.8840    0.7350   -1.2590 HA         1 RBU      0.141092
     29 H21        -2.5680    1.5190   -1.2370 HA         1 RBU      0.146091
@<TRIPOS>BOND
    1     1     2 1
    2     1     3 1
    3     1     9 1
    4     4     5 1
    5     5     6 1
    6     5    11 1
    7     6     7 1
    8     7     8 1
    9     7     9 1
   10     9    10 1
   11    10    11 1
   12    11    17 1
   13    17    20 1
   14    17    24 1
   15    20    21 1
   16    21    22 1
   17    22    23 1
   18    23    24 1
   19     1    12 1
   20     2    13 1
   21     2    14 1
   22     2    18 1
   23     3    19 1
   24     6    15 1
   25    10    16 1
   26    20    25 1
   27    21    26 1
   28    22    27 1
   29    23    28 1
   30    24    29 1
@<TRIPOS>SUBSTRUCTURE
      1 RBU               1 ****               0 ****  **** 
