@<TRIPOS>MOLECULE
modXNA-fragment:RCU:HEAD01:@N1:HEAD01STRIP:@C1',H1',C2',H2'1,H2'2,H2'3,O4',HHO4
   32    33     1     0     0
SMALL
USER_CHARGES


@<TRIPOS>ATOM
      1 C1'         3.2190   -1.3370   -0.3360 CT         1 RCU      0.274094
      2 C2'         3.5240   -2.0170    0.9900 CT         1 RCU     -0.270606
      3 O4'         2.6340   -2.2150   -1.2500 OH         1 RCU     -0.695904
      4 O4         -0.2410    2.8300    0.3110 O          1 RCU     -0.588824
      5 C4          0.4470    1.8620    0.1770 C          1 RCU      0.644580
      6 N3          1.8280    1.9950    0.1780 NA         1 RCU     -0.764867
      7 C2          2.7780    1.0230    0.0320 C          1 RCU      0.605671
      8 O2          3.9520    1.2600    0.0830 O          1 RCU     -0.621648
      9 N1          2.2710   -0.2360   -0.1710 N*         1 RCU     -0.143582
     10 C6          0.9120   -0.4670   -0.1700 CM         1 RCU     -0.030617
     11 C5         -0.0170    0.4790    0.0030 CM         1 RCU     -0.216481
     12 H1'         4.1150   -0.8980   -0.7450 H2         1 RCU      0.060263
     13 H2'1        3.9590   -1.3070    1.6830 HC         1 RCU      0.101003
     14 H2'2        4.2360   -2.8240    0.8430 HC         1 RCU      0.101003
     15 H3          2.1810    2.9190    0.3150 H          1 RCU      0.399924
     16 H6          0.6410   -1.4860   -0.3470 H4         1 RCU      0.204055
     17 C17        -1.4690    0.1560    0.0220 CA         1 RCU      0.065356
     18 H2'3        2.6210   -2.4320    1.4230 HC         1 RCU      0.101003
     19 HHO4        3.2290   -2.9310   -1.4270 HO         1 RCU      0.461179
     20 C20        -1.9400   -0.9410    0.7380 CA         1 RCU     -0.118448
     21 C21        -3.2810   -1.2790    0.7250 CA         1 RCU     -0.219072
     22 C22        -4.2030   -0.5250    0.0090 CA         1 RCU      0.220208
     23 C23        -3.7340    0.5790   -0.6900 CA         1 RCU     -0.219072
     24 C24        -2.3910    0.9180   -0.6860 CA         1 RCU     -0.118448
     25 H20        -1.2570   -1.5270    1.3260 HA         1 RCU      0.154072
     26 H21        -3.6140   -2.1330    1.2910 HA         1 RCU      0.163712
     27 C29        -5.6670   -0.8980    0.0050 CT         1 RCU     -0.295350
     28 H23        -4.4230    1.1870   -1.2490 HA         1 RCU      0.163712
     29 H24        -2.0630    1.7820   -1.2310 HA         1 RCU      0.154072
     30 H29        -6.2530   -0.1850   -0.5630 HC         1 RCU      0.109128
     31 H4         -6.0670   -0.9280    1.0140 HC         1 RCU      0.109128
     32 H5         -5.8200   -1.8790   -0.4350 HC         1 RCU      0.109128
@<TRIPOS>BOND
    1     1     2 1
    2     1     3 1
    3     1     9 1
    4     4     5 1
    5     5     6 1
    6     5    11 1
    7     6     7 1
    8     7     8 1
    9     7     9 1
   10     9    10 1
   11    10    11 1
   12    11    17 1
   13    17    20 1
   14    17    24 1
   15    20    21 1
   16    21    22 1
   17    22    23 1
   18    22    27 1
   19    23    24 1
   20     1    12 1
   21     2    13 1
   22     2    14 1
   23     2    18 1
   24     3    19 1
   25     6    15 1
   26    10    16 1
   27    20    25 1
   28    21    26 1
   29    23    28 1
   30    24    29 1
   31    27    30 1
   32    27    31 1
   33    27    32 1
@<TRIPOS>SUBSTRUCTURE
      1 RCU               1 ****               0 ****  **** 
