@<TRIPOS>MOLECULE
modXNA-fragment:RDU:HEAD01:@N1:HEAD01STRIP:@C1',H1',C2',H2'1,H2'2,H2'3,O4',HHO4
   35    36     1     0     0
SMALL
USER_CHARGES


@<TRIPOS>ATOM
      1 C1'         3.6130   -1.3380   -0.2580 CT         1 RDU      0.279130
      2 C2'         3.8590   -2.0240    1.0770 CT         1 RDU     -0.274286
      3 O4'         3.0670   -2.2120   -1.2010 OH         1 RDU     -0.697073
      4 O4          0.1300    2.8280    0.2570 O          1 RDU     -0.592324
      5 C4          0.8230    1.8610    0.1470 C          1 RDU      0.656224
      6 N3          2.2030    1.9930    0.2080 NA         1 RDU     -0.766704
      7 C2          3.1570    1.0210    0.1000 C          1 RDU      0.604405
      8 O2          4.3280    1.2560    0.2030 O          1 RDU     -0.620373
      9 N1          2.6590   -0.2370   -0.1300 N*         1 RDU     -0.144904
     10 C6          1.3010   -0.4670   -0.1900 CM         1 RDU     -0.017108
     11 C5          0.3660    0.4780   -0.0520 CM         1 RDU     -0.246238
     12 H1'         4.5260   -0.8990   -0.6260 H2         1 RDU      0.057953
     13 H2'1        4.2640   -1.3180    1.7920 HC         1 RDU      0.101989
     14 H2'2        4.5760   -2.8310    0.9580 HC         1 RDU      0.101989
     15 H3          2.5500    2.9150    0.3650 H          1 RDU      0.398997
     16 H6          1.0380   -1.4860   -0.3830 H4         1 RDU      0.196183
     17 C17        -1.0860    0.1580   -0.0970 CA         1 RDU      0.122751
     18 H2'3        2.9370   -2.4400    1.4690 HC         1 RDU      0.101989
     19 HHO4        3.6680   -2.9280   -1.3530 HO         1 RDU      0.460985
     20 C20        -1.5900   -0.9380    0.5930 CA         1 RDU     -0.156611
     21 C21        -2.9310   -1.2760    0.5170 CA         1 RDU     -0.130855
     22 C22        -3.8170   -0.5210   -0.2370 CA         1 RDU      0.001156
     23 C23        -3.3130    0.5840   -0.9160 CA         1 RDU     -0.130855
     24 C24        -1.9750    0.9220   -0.8500 CA         1 RDU     -0.156611
     25 H20        -0.9340   -1.5280    1.2090 HA         1 RDU      0.153746
     26 H21        -3.2890   -2.1330    1.0620 HA         1 RDU      0.147260
     27 C41        -5.2910   -0.8600   -0.2870 CT         1 RDU      0.072990
     28 H23        -3.9760    1.1890   -1.5110 HA         1 RDU      0.147260
     29 H24        -1.6190    1.7840   -1.3810 HA         1 RDU      0.153746
     30 H25        -5.6870   -0.6070   -1.2660 HC         1 RDU     -0.003099
     31 C13        -6.1050   -0.1340    0.7910 CT         1 RDU     -0.067931
     32 H4         -5.4190   -1.9320   -0.1710 HC         1 RDU     -0.003099
     33 H31        -7.1560   -0.3990    0.7240 HC         1 RDU      0.024562
     34 H32        -6.0220    0.9420    0.6820 HC         1 RDU      0.024562
     35 H33        -5.7540   -0.3940    1.7840 HC         1 RDU      0.024562
@<TRIPOS>BOND
    1     1     2 1
    2     1     3 1
    3     1     9 1
    4     4     5 1
    5     5     6 1
    6     5    11 1
    7     6     7 1
    8     7     8 1
    9     7     9 1
   10     9    10 1
   11    10    11 1
   12    11    17 1
   13    17    20 1
   14    17    24 1
   15    20    21 1
   16    21    22 1
   17    22    23 1
   18    22    27 1
   19    23    24 1
   20    27    31 1
   21     1    12 1
   22     2    13 1
   23     2    14 1
   24     2    18 1
   25     3    19 1
   26     6    15 1
   27    10    16 1
   28    20    25 1
   29    21    26 1
   30    23    28 1
   31    24    29 1
   32    27    30 1
   33    27    32 1
   34    31    33 1
   35    31    34 1
   36    31    35 1
@<TRIPOS>SUBSTRUCTURE
      1 RDU               1 ****               0 ****  **** 
