@<TRIPOS>MOLECULE
modXNA-fragment:REU:HEAD01:@N1:HEAD01STRIP:@C1',H1',C2',H2'1,H2'2,H2'3,O4',HHO4
   38    39     1     0     0
SMALL
USER_CHARGES


@<TRIPOS>ATOM
      1 C1'        -3.9760   -1.3160    0.1600 CT         1 REU      0.310728
      2 C2'        -4.3730   -1.7080   -1.2550 CT         1 REU     -0.299060
      3 O4'        -3.3760   -2.3750    0.8470 OH         1 REU     -0.731537
      4 O4         -0.4030    2.8030    0.0560 O          1 REU     -0.597021
      5 C4         -1.1160    1.8450    0.0880 C          1 REU      0.652500
      6 N3         -2.4850    2.0120    0.2420 NA         1 REU     -0.753416
      7 C2         -3.4630    1.0570    0.2740 C          1 REU      0.589147
      8 O2         -4.6250    1.3320    0.3750 O          1 REU     -0.617773
      9 N1         -2.9980   -0.2290    0.1650 N*         1 REU     -0.133490
     10 C6         -1.6540   -0.4920    0.0060 CM         1 REU     -0.035183
     11 C5         -0.6980    0.4410   -0.0270 CM         1 REU     -0.235949
     12 H1'        -4.8320   -0.9460    0.6990 H2         1 REU      0.049938
     13 H2'1       -4.8190   -0.8630   -1.7660 HC         1 REU      0.110877
     14 H2'2       -5.1050   -2.5100   -1.2310 HC         1 REU      0.110877
     15 H3         -2.8070    2.9540    0.3200 H          1 REU      0.398893
     16 H6         -1.4200   -1.5320   -0.0810 H4         1 REU      0.205253
     17 C17         0.7400    0.0840   -0.1560 CA         1 REU      0.107409
     18 H2'3       -3.5090   -2.0490   -1.8150 HC         1 REU      0.110877
     19 HHO4       -3.9790   -3.1040    0.8920 HO         1 REU      0.471966
     20 C20         1.2760   -0.9660    0.5840 CA         1 REU     -0.148314
     21 C21         2.6000   -1.3400    0.4360 CA         1 REU     -0.166057
     22 C22         3.4420   -0.6690   -0.4430 CA         1 REU      0.108235
     23 C23         2.9060    0.3870   -1.1710 CA         1 REU     -0.166057
     24 C24         1.5810    0.7610   -1.0320 CA         1 REU     -0.148314
     25 H20         0.6590   -1.4880    1.2940 HA         1 REU      0.159481
     26 H21         2.9820   -2.1610    1.0190 HA         1 REU      0.151895
     27 C278        4.8950   -1.0720   -0.5830 CT         1 REU     -0.125994
     28 H23         3.5310    0.9260   -1.8610 HA         1 REU      0.151895
     29 H24         1.2030    1.5870   -1.6030 HA         1 REU      0.159481
     30 C36         5.7910   -0.6230    0.5840 CT         1 REU      0.199508
     31 C37         5.9370    0.8930    0.7100 CT         1 REU     -0.163721
     32 H278        4.9550   -2.1540   -0.6670 HC         1 REU      0.043029
     33 H4          5.2930   -0.6700   -1.5100 HC         1 REU      0.043029
     34 H361        5.4000   -1.0270    1.5140 HC         1 REU     -0.054482
     35 H362        6.7750   -1.0660    0.4470 HC         1 REU     -0.054482
     36 H371        6.6020    1.1490    1.5290 HC         1 REU      0.048202
     37 H372        4.9820    1.3720    0.8960 HC         1 REU      0.048202
     38 H373        6.3530    1.3220   -0.1980 HC         1 REU      0.048202
@<TRIPOS>BOND
    1     1     2 1
    2     1     3 1
    3     1     9 1
    4     4     5 1
    5     5     6 1
    6     5    11 1
    7     6     7 1
    8     7     8 1
    9     7     9 1
   10     9    10 1
   11    10    11 1
   12    11    17 1
   13    17    20 1
   14    17    24 1
   15    20    21 1
   16    21    22 1
   17    22    23 1
   18    22    27 1
   19    23    24 1
   20    27    30 1
   21    30    31 1
   22     1    12 1
   23     2    13 1
   24     2    14 1
   25     2    18 1
   26     3    19 1
   27     6    15 1
   28    10    16 1
   29    20    25 1
   30    21    26 1
   31    23    28 1
   32    24    29 1
   33    27    32 1
   34    27    33 1
   35    30    34 1
   36    30    35 1
   37    31    36 1
   38    31    37 1
   39    31    38 1
@<TRIPOS>SUBSTRUCTURE
      1 REU               1 ****               0 ****  **** 
