@<TRIPOS>MOLECULE
modXNA-fragment:RFU:HEAD01:@N1:HEAD01STRIP:@C1',H1',C2',H2'1,H2'2,H2'3,O4',HHO4
   41    42     1     0     0
SMALL
USER_CHARGES


@<TRIPOS>ATOM
      1 C1'        -4.3800   -1.1960    0.3710 CT         1 RFU      0.314933
      2 C2'        -4.8650   -1.6740   -0.9890 CT         1 RFU     -0.296164
      3 O4'        -3.7850   -2.2260    1.1050 OH         1 RFU     -0.732666
      4 O4         -0.6670    2.7550   -0.2160 O          1 RFU     -0.599716
      5 C4         -1.4130    1.8320   -0.0780 C          1 RFU      0.658723
      6 N3         -2.7650    2.0650    0.1310 NA         1 RFU     -0.754803
      7 C2         -3.7740    1.1560    0.2820 C          1 RFU      0.593710
      8 O2         -4.9180    1.4840    0.4200 O          1 RFU     -0.619478
      9 N1         -3.3640   -0.1530    0.2470 N*         1 RFU     -0.143705
     10 C6         -2.0410   -0.4810    0.0410 CM         1 RFU     -0.024592
     11 C5         -1.0530    0.4070   -0.1080 CM         1 RFU     -0.244007
     12 H1'        -5.1930   -0.7540    0.9230 H2         1 RFU      0.048997
     13 H2'1       -5.3050   -0.8510   -1.5390 HC         1 RFU      0.109361
     14 H2'2       -5.6240   -2.4420   -0.8690 HC         1 RFU      0.109361
     15 H3         -3.0470    3.0220    0.1540 H          1 RFU      0.398045
     16 H6         -1.8500   -1.5340    0.0200 H4         1 RFU      0.202822
     17 C17         0.3610   -0.0170   -0.2810 CA         1 RFU      0.089368
     18 H2'3       -4.0450   -2.0900   -1.5640 HC         1 RFU      0.109361
     19 HHO4       -4.4110   -2.9250    1.2330 HO         1 RFU      0.471945
     20 C20         0.8960   -1.0310    0.5080 CA         1 RFU     -0.128483
     21 C21         2.1960   -1.4680    0.3230 CA         1 RFU     -0.176597
     22 C22         3.0150   -0.8980   -0.6440 CA         1 RFU      0.114176
     23 C23         2.4810    0.1230   -1.4220 CA         1 RFU     -0.176597
     24 C24         1.1800    0.5600   -1.2460 CA         1 RFU     -0.128483
     25 H20         0.2980   -1.4750    1.2840 HA         1 RFU      0.154734
     26 H21         2.5770   -2.2590    0.9460 HA         1 RFU      0.149531
     27 C278        4.4430   -1.3700   -0.8260 CT         1 RFU     -0.122608
     28 H23         3.0890    0.5850   -2.1810 HA         1 RFU      0.149531
     29 H24         0.8030    1.3570   -1.8580 HA         1 RFU      0.154734
     30 C36         5.4150   -0.8880    0.2640 CT         1 RFU      0.033940
     31 C37         5.6440    0.6250    0.2810 CT         1 RFU      0.092287
     32 H278        4.4550   -2.4570   -0.8420 HC         1 RFU      0.049280
     33 H4          4.8080   -1.0460   -1.7970 HC         1 RFU      0.049280
     34 H361        5.0510   -1.2090    1.2370 HC         1 RFU      0.000330
     35 H362        6.3690   -1.3890    0.1130 HC         1 RFU      0.000330
     36 C7          6.6430    1.0550    1.3550 CT         1 RFU     -0.213641
     37 H371        4.7010    1.1370    0.4420 HC         1 RFU     -0.002819
     38 H372        6.0050    0.9430   -0.6950 HC         1 RFU     -0.002819
     39 H5          7.6120    0.5870    1.2030 HC         1 RFU      0.063505
     40 H7          6.2960    0.7790    2.3460 HC         1 RFU      0.063505
     41 H363        6.7900    2.1310    1.3450 HC         1 RFU      0.063505
@<TRIPOS>BOND
    1     1     2 1
    2     1     3 1
    3     1     9 1
    4     4     5 1
    5     5     6 1
    6     5    11 1
    7     6     7 1
    8     7     8 1
    9     7     9 1
   10     9    10 1
   11    10    11 1
   12    11    17 1
   13    17    20 1
   14    17    24 1
   15    20    21 1
   16    21    22 1
   17    22    23 1
   18    22    27 1
   19    23    24 1
   20    27    30 1
   21    30    31 1
   22    31    36 1
   23     1    12 1
   24     2    13 1
   25     2    14 1
   26     2    18 1
   27     3    19 1
   28     6    15 1
   29    10    16 1
   30    20    25 1
   31    21    26 1
   32    23    28 1
   33    24    29 1
   34    27    32 1
   35    27    33 1
   36    30    34 1
   37    30    35 1
   38    31    37 1
   39    31    38 1
   40    36    39 1
   41    36    40 1
   42    36    41 1
@<TRIPOS>SUBSTRUCTURE
      1 RFU               1 ****               0 ****  **** 
