@<TRIPOS>MOLECULE
modXNA-fragment:RGU:HEAD01:@N1:HEAD01STRIP:@C1',H1',C2',H2'1,H2'2,H2'3,O4',HHO4
   44    45     1     0     0
SMALL
USER_CHARGES


@<TRIPOS>ATOM
      1 C1'        -4.7890   -0.9670    0.5390 CT         1 RGU      0.311671
      2 C2'        -5.3470   -1.5330   -0.7590 CT         1 RGU     -0.300006
      3 O4'        -4.2430   -1.9640    1.3510 OH         1 RGU     -0.730543
      4 O4         -0.8370    2.6440   -0.5040 O          1 RGU     -0.599172
      5 C4         -1.6390    1.7910   -0.2620 C          1 RGU      0.655850
      6 N3         -2.9660    2.1370   -0.0450 NA         1 RGU     -0.751304
      7 C2         -4.0290    1.3180    0.2140 C          1 RGU      0.588368
      8 O2         -5.1440    1.7370    0.3470 O          1 RGU     -0.617084
      9 N1         -3.7090   -0.0140    0.2930 N*         1 RGU     -0.138818
     10 C6         -2.4180   -0.4510    0.0890 CM         1 RGU     -0.026321
     11 C5         -1.3780    0.3480   -0.1670 CM         1 RGU     -0.245055
     12 H1'        -5.5530   -0.4200    1.0660 H2         1 RGU      0.050360
     13 H2'1       -5.7460   -0.7350   -1.3730 HC         1 RGU      0.111081
     14 H2'2       -6.1520   -2.2310   -0.5490 HC         1 RGU      0.111081
     15 H3         -3.1820    3.1100   -0.1060 H          1 RGU      0.398158
     16 H6         -2.2990   -1.5120    0.1620 H4         1 RGU      0.202087
     17 C17        -0.0000   -0.1880   -0.3310 CA         1 RGU      0.107184
     18 H2'3       -4.5740   -2.0560   -1.3120 HC         1 RGU      0.111081
     19 HHO4       -4.9110   -2.6040    1.5580 HO         1 RGU      0.471637
     20 C20         0.4880   -1.1590    0.5380 CA         1 RGU     -0.141636
     21 C21         1.7490   -1.7010    0.3650 CA         1 RGU     -0.158728
     22 C22         2.5760   -1.2810   -0.6710 CA         1 RGU      0.069928
     23 C23         2.0890   -0.3030   -1.5300 CA         1 RGU     -0.158728
     24 C24         0.8260    0.2380   -1.3660 CA         1 RGU     -0.141636
     25 H20        -0.1150   -1.4850    1.3670 HA         1 RGU      0.156560
     26 H21         2.0950   -2.4540    1.0520 HA         1 RGU      0.146809
     27 C278        3.9630   -1.8670   -0.8400 CT         1 RGU     -0.037760
     28 H23         2.7030    0.0430   -2.3430 HA         1 RGU      0.146809
     29 H24         0.4850    0.9990   -2.0420 HA         1 RGU      0.156560
     30 C36         4.9980   -1.3520    0.1750 CT         1 RGU      0.031967
     31 C37         5.3290    0.1350    0.0380 CT         1 RGU     -0.021178
     32 H278        3.9020   -2.9480   -0.7510 HC         1 RGU      0.023201
     33 H5          4.3190   -1.6620   -1.8460 HC         1 RGU      0.023201
     34 H361        4.6420   -1.5520    1.1830 HC         1 RGU     -0.009661
     35 H362        5.9100   -1.9320    0.0520 HC         1 RGU     -0.009661
     36 C7          6.3850    0.6050    1.0410 CT         1 RGU      0.073452
     37 H371        4.4260    0.7260    0.1670 HC         1 RGU      0.019708
     38 H372        5.6830    0.3320   -0.9730 HC         1 RGU      0.019708
     39 H7          7.2920    0.0170    0.9140 HC         1 RGU     -0.011604
     40 H8          6.0340    0.4090    2.0520 HC         1 RGU     -0.011604
     41 C41         6.7210    2.0900    0.9010 CT         1 RGU     -0.164988
     42 H411        5.8400    2.7060    1.0560 HC         1 RGU      0.049775
     43 H412        7.1090    2.3120   -0.0890 HC         1 RGU      0.049775
     44 H413        7.4700    2.3940    1.6260 HC         1 RGU      0.049775
@<TRIPOS>BOND
    1     1     2 1
    2     1     3 1
    3     1     9 1
    4     4     5 1
    5     5     6 1
    6     5    11 1
    7     6     7 1
    8     7     8 1
    9     7     9 1
   10     9    10 1
   11    10    11 1
   12    11    17 1
   13    17    20 1
   14    17    24 1
   15    20    21 1
   16    21    22 1
   17    22    23 1
   18    22    27 1
   19    23    24 1
   20    27    30 1
   21    30    31 1
   22    31    36 1
   23    36    41 1
   24     1    12 1
   25     2    13 1
   26     2    14 1
   27     2    18 1
   28     3    19 1
   29     6    15 1
   30    10    16 1
   31    20    25 1
   32    21    26 1
   33    23    28 1
   34    24    29 1
   35    27    32 1
   36    27    33 1
   37    30    34 1
   38    30    35 1
   39    31    37 1
   40    31    38 1
   41    36    39 1
   42    36    40 1
   43    41    42 1
   44    41    43 1
   45    41    44 1
@<TRIPOS>SUBSTRUCTURE
      1 RGU               1 ****               0 ****  **** 
