@<TRIPOS>MOLECULE
modXNA-fragment:RUU:HEAD01:@N1:HEAD01STRIP:@C1',H1',O4',HHO4,C2',H2'1,H2'3,H2'2
   19    19     1     0     0
SMALL
USER_CHARGES


@<TRIPOS>ATOM
      1 O4'        -2.4170   -1.0980    0.8520 OH         1 UUU     -0.738005
      2 C1'        -1.9710    0.0540    0.2000 CT         1 UUU      0.067400
      3 H1'        -2.1670    0.9310    0.7940 H2         1 UUU      0.182400
      4 N1         -0.5140   -0.0680    0.1260 N*         1 UUU      0.041800
      5 C6          0.0900   -1.2930   -0.0500 CS         1 UUU     -0.112600
      6 H6         -0.5860   -2.1210   -0.0820 H4         1 UUU      0.218800
      7 C5          1.4080   -1.4490   -0.1530 CS         1 UUU     -0.363500
      8 H5          1.8560   -2.4120   -0.2810 HA         1 UUU      0.181100
      9 C4          2.2770   -0.2820   -0.0770 C          1 UUU      0.595200
     10 O4          3.4690   -0.2820   -0.1500 O          1 UUU     -0.576100
     11 N3          1.5800    0.9090    0.0930 NA         1 UUU     -0.354900
     12 H3          2.1250    1.7440    0.1380 H          1 UUU      0.315400
     13 C2          0.2280    1.0900    0.1820 C          1 UUU      0.468700
     14 O2         -0.2670    2.1760    0.2920 O          1 UUU     -0.547700
     15 C2'        -2.5920    0.2020   -1.1800 CT         1 UUU     -0.372944
     16 H2'1       -2.3720   -0.6660   -1.7920 HC         1 UUU      0.107945
     17 HHO4       -3.3570   -1.0520    0.9660 HO         1 UUU      0.483092
     18 H2'2       -3.6710    0.2990   -1.0970 HC         1 UUU      0.107945
     19 H2'3       -2.2120    1.0910   -1.6680 HC         1 UUU      0.107945
@<TRIPOS>BOND
    1     1     2 1
    2     2     4 1
    3     2    15 1
    4     4     5 1
    5     4    13 1
    6     5     7 1
    7     7     9 1
    8     9    10 1
    9     9    11 1
   10    11    13 1
   11    13    14 1
   12     1    17 1
   13     2     3 1
   14     5     6 1
   15     7     8 1
   16    11    12 1
   17    15    16 1
   18    15    18 1
   19    15    19 1
@<TRIPOS>SUBSTRUCTURE
      1 UUU               1 ****               0 ****  **** 
