@<TRIPOS>MOLECULE
modXNA-fragment:RYC:HEAD01:@N1:HEAD01STRIP:@C1',H1',O4',HO4',C2',H2'1,H2'3,H2'2
   22    22     1     0     0
SMALL
USER_CHARGES


@<TRIPOS>ATOM
      1 O4'        -2.5040    0.5230    0.9610 OH         1 RYC     -0.694089
      2 C1'        -2.0160    0.0600   -0.2600 CT         1 RYC      0.384816
      3 H1'        -2.2020    0.7950   -1.0280 H2         1 RYC      0.028158
      4 N1         -0.5660   -0.1240   -0.2310 N          1 RYC     -0.647858
      5 C6         -0.0140   -1.3560    0.3390 CT         1 RYC      0.391496
      6 H61        -0.4290   -2.1910   -0.2070 H1         1 RYC     -0.001998
      7 C5          1.4830   -1.3930    0.2150 CM         1 RYC     -0.578985
      8 H5          1.9790   -2.3440    0.2690 HA         1 RYC      0.220542
      9 C4          2.1670   -0.2780    0.0380 CM         1 RYC      0.550531
     10 N4          3.5530   -0.1290    0.0020 NT         1 RYC     -0.976227
     11 H41         3.8690    0.3410   -0.8240 H          1 RYC      0.396714
     12 H42         4.0360   -0.9960    0.1100 H          1 RYC      0.396714
     13 N3          1.5000    0.9350   -0.1060 N          1 RYC     -0.793093
     14 C2          0.1360    1.0450   -0.1680 C          1 RYC      0.734902
     15 O2         -0.3860    2.1330   -0.1920 O          1 RYC     -0.688422
     16 C2'        -2.7680   -1.2120   -0.6010 CT         1 RYC     -0.258055
     17 H2'1       -2.7020   -1.9390    0.1980 HC         1 RYC      0.096824
     18 HO4'       -2.1970    1.4160    1.0700 HO         1 RYC      0.440176
     19 H2'2       -3.8130   -0.9620   -0.7330 HC         1 RYC      0.096824
     20 H2'3       -2.3960   -1.6510   -1.5200 HC         1 RYC      0.096824
     21 H62        -0.3360   -1.4610    1.3740 H1         1 RYC     -0.001998
     22 H3          1.9800    1.7790    0.1120 H          1 RYC      0.419455
@<TRIPOS>BOND
    1     1     2 1
    2     2     4 1
    3     2    16 1
    4     4     5 1
    5     4    14 1
    6     5     7 1
    7     7     9 1
    8     9    10 1
    9     9    13 1
   10    13    14 1
   11    14    15 1
   12     1    18 1
   13     2     3 1
   14     5     6 1
   15     5    21 1
   16     7     8 1
   17    10    11 1
   18    10    12 1
   19    13    22 1
   20    16    17 1
   21    16    19 1
   22    16    20 1
@<TRIPOS>SUBSTRUCTURE
      1 RYC               1 ****               0 ****  **** 
