@<TRIPOS>MOLECULE
modXNA-fragment:S2C:HEAD01:@N1:HEAD01STRIP:@C1',H1',O4',HHO4,C2',H2'1,H2'3,H2'2
   20    20     1     0     0
SMALL
USER_CHARGES


@<TRIPOS>ATOM
      1 O4'        -2.3670   -1.4080    0.9290 OH         1 S2C     -0.713806
      2 C1'        -1.9570   -0.3320    0.1500 CT         1 S2C      0.384377
      3 H1'        -2.2490    0.6040    0.5870 H2         1 S2C     -0.017711
      4 N1         -0.4700   -0.3070    0.0970 N*         1 S2C     -0.159021
      5 C6          0.1680   -1.4990   -0.0030 CM         1 S2C      0.139986
      6 H6         -0.4670   -2.3610    0.0040 H4         1 S2C      0.177044
      7 C5          1.5030   -1.5910   -0.0840 CM         1 S2C     -0.607344
      8 H5          2.0030   -2.5370   -0.1550 HA         1 S2C      0.253932
      9 C4          2.2030   -0.3470   -0.0500 CA         1 S2C      0.979262
     10 N4          3.5410   -0.3240   -0.0890 N2         1 S2C     -1.239074
     11 H41         3.9970    0.5600   -0.1110 H          1 S2C      0.493317
     12 H42         4.0790   -1.1480   -0.2210 H          1 S2C      0.493317
     13 N3          1.5860    0.8010    0.0270 NC         1 S2C     -0.836963
     14 C2          0.2510    0.8780    0.0810 C          1 S2C      0.350096
     15 S2         -0.5230    2.3740    0.1210 S          1 S2C     -0.506624
     16 C2'        -2.5500   -0.4860   -1.2350 CT         1 S2C     -0.168758
     17 H2'1       -2.2260    0.3290   -1.8680 HC         1 S2C      0.067511
     18 HHO4       -2.2700   -1.1930    1.8480 HO         1 S2C      0.435136
     19 H2'2       -2.2480   -1.4290   -1.6790 HC         1 S2C      0.067511
     20 H2'3       -3.6300   -0.4730   -1.1640 HC         1 S2C      0.067511
@<TRIPOS>BOND
    1     1     2 1
    2     2     4 1
    3     2    16 1
    4     4     5 1
    5     4    14 1
    6     5     7 1
    7     7     9 1
    8     9    10 1
    9     9    13 1
   10    13    14 1
   11    14    15 1
   12     1    18 1
   13     2     3 1
   14     5     6 1
   15     7     8 1
   16    10    11 1
   17    10    12 1
   18    16    17 1
   19    16    19 1
   20    16    20 1
@<TRIPOS>SUBSTRUCTURE
      1 S2C               1 ****               0 ****  **** 
