@<TRIPOS>MOLECULE
modXNA-fragment:S2U:HEAD01:@N1:HEAD01STRIP:@C1',H1',O4',HHO4,C2',H2'1,H2'3,H2'2
   19    19     1     0     0
SMALL
USER_CHARGES


@<TRIPOS>ATOM
      1 O4'        -2.3880   -1.2980    0.9750 OH         1 S2U     -0.701832
      2 C1'        -1.9530   -0.2900    0.1290 CT         1 S2U      0.379427
      3 H1'        -2.2380    0.6800    0.4920 H2         1 S2U     -0.019654
      4 N1         -0.4650   -0.2910    0.0970 N*         1 S2U      0.206349
      5 C6          0.1680   -1.5200    0.0230 CM         1 S2U     -0.121898
      6 H6         -0.4980   -2.3570    0.0510 H4         1 S2U      0.216785
      7 C5          1.4860   -1.6670   -0.0520 CM         1 S2U     -0.300829
      8 H5          1.9510   -2.6300   -0.1020 HA         1 S2U      0.206344
      9 C4          2.3270   -0.4810   -0.0600 C          1 S2U      0.534948
     10 O4          3.5170   -0.4490   -0.1170 O          1 S2U     -0.582149
     11 N3          1.5920    0.7020    0.0070 NA         1 S2U     -0.152848
     12 H3          2.1270    1.5460   -0.0080 H          1 S2U      0.247094
     13 C2          0.2510    0.8600    0.0700 C          1 S2U     -0.068097
     14 S2         -0.4040    2.4040    0.1060 S          1 S2U     -0.385168
     15 C2'        -2.5290   -0.5360   -1.2500 CT         1 S2U     -0.187436
     16 H2'1       -2.2330   -1.5090   -1.6260 HC         1 S2U      0.076180
     17 HHO4       -2.2780   -1.0340    1.8800 HO         1 S2U      0.425861
     18 H2'2       -3.6100   -0.5080   -1.1940 HC         1 S2U      0.076180
     19 H2'3       -2.1910    0.2290   -1.9380 HC         1 S2U      0.076180
@<TRIPOS>BOND
    1     1     2 1
    2     2     4 1
    3     2    15 1
    4     4     5 1
    5     4    13 1
    6     5     7 1
    7     7     9 1
    8     9    10 1
    9     9    11 1
   10    11    13 1
   11    13    14 1
   12     1    17 1
   13     2     3 1
   14     5     6 1
   15     7     8 1
   16    11    12 1
   17    15    16 1
   18    15    18 1
   19    15    19 1
@<TRIPOS>SUBSTRUCTURE
      1 S2U               1 ****               0 ****  **** 
