@<TRIPOS>MOLECULE
modXNA-fragment:S4U:HEAD01:@N1:HEAD01STRIP:@C1',H1',O4',HHO4,C2',H2'1,H2'3,H2'2
   19    19     1     0     0
SMALL
USER_CHARGES


@<TRIPOS>ATOM
      1 O4'        -2.7880   -1.1850    0.7830 OH         1 S4U     -0.733905
      2 C1'        -2.3660    0.0070    0.1940 CT         1 S4U      0.258291
      3 H1'        -2.5910    0.8500    0.8270 H2         1 S4U      0.065781
      4 N1         -0.9030   -0.0770    0.1340 N*         1 S4U      0.001127
      5 C6         -0.2580   -1.2760   -0.0330 CM         1 S4U     -0.084488
      6 H6         -0.9000   -2.1300   -0.0770 H4         1 S4U      0.234671
      7 C5          1.0720   -1.3780   -0.1180 CM         1 S4U     -0.106733
      8 H5          1.5510   -2.3260   -0.2420 HA         1 S4U      0.124393
      9 C4          1.8860   -0.1930   -0.0300 C          1 S4U      0.072228
     10 S4          3.5350   -0.1650   -0.1130 S          1 S4U     -0.378599
     11 N3          1.1670    0.9570    0.1300 NA         1 S4U     -0.177892
     12 H3          1.6760    1.8150    0.1890 H          1 S4U      0.246622
     13 C2         -0.1970    1.0990    0.2040 C          1 S4U      0.431740
     14 O2         -0.7160    2.1710    0.3130 O          1 S4U     -0.577793
     15 C2'        -2.9700    0.2060   -1.1870 CT         1 S4U     -0.280377
     16 H2'1       -2.7210   -0.6280   -1.8340 HC         1 S4U      0.109289
     17 HHO4       -3.7300   -1.1720    0.8860 HO         1 S4U      0.485279
     18 H2'2       -4.0510    0.2750   -1.1150 HC         1 S4U      0.109289
     19 H2'3       -2.6040    1.1250   -1.6290 HC         1 S4U      0.109289
@<TRIPOS>BOND
    1     1     2 1
    2     2     4 1
    3     2    15 1
    4     4     5 1
    5     4    13 1
    6     5     7 1
    7     7     9 1
    8     9    10 1
    9     9    11 1
   10    11    13 1
   11    13    14 1
   12     1    17 1
   13     2     3 1
   14     5     6 1
   15     7     8 1
   16    11    12 1
   17    15    16 1
   18    15    18 1
   19    15    19 1
@<TRIPOS>SUBSTRUCTURE
      1 S4U               1 ****               0 ****  **** 
