@<TRIPOS>MOLECULE
modXNA-fragment:S6A:HEAD01:@N9:HEAD01STRIP:@C1',H1',O4',HHO4,C2',H2'1,H2'3,H2'2
   40    41     1     0     0
SMALL
USER_CHARGES


@<TRIPOS>ATOM
      1 O4'        -4.8790   -2.4130    0.9160 OH         1 S6A     -0.738222
      2 C1'        -4.4790   -1.2320    0.2910 CT         1 S6A      0.315814
      3 H1'        -4.6570   -0.3770    0.9310 H2         1 S6A      0.059715
      4 N9         -3.0410   -1.3380    0.1430 N*         1 S6A     -0.140235
      5 C8         -2.2830   -2.4770   -0.0030 CK         1 S6A      0.208742
      6 H8         -2.7390   -3.4430    0.0250 H5         1 S6A      0.156046
      7 N7         -1.0300   -2.2490   -0.1450 NB         1 S6A     -0.656504
      8 C5         -0.9290   -0.8730   -0.0970 CB         1 S6A      0.083263
      9 C6          0.1530    0.0130   -0.1840 CA         1 S6A      0.200582
     10 N6          1.4070   -0.4250   -0.3710 N2         1 S6A     -0.320746
     11 C11         2.5840    0.4260   -0.3340 CT         1 S6A     -0.043689
     12 H6          1.5380   -1.4100   -0.3230 H          1 S6A      0.316501
     13 N1         -0.0860    1.3180   -0.0880 NC         1 S6A     -0.422477
     14 C2         -1.3380    1.7290    0.0740 CQ         1 S6A      0.441003
     15 S2         -1.6370    3.4690    0.1910 S          1 S6A     -0.235304
     16 N3         -2.4280    1.0010    0.1660 NC         1 S6A     -0.664970
     17 C4         -2.1640   -0.2980    0.0800 CB         1 S6A      0.294315
     18 C2'        -5.1700   -1.0300   -1.0490 CT         1 S6A     -0.332057
     19 H2'1       -4.9780   -1.8760   -1.7000 HC         1 S6A      0.123406
     20 HHO4       -5.8240   -2.4370    0.9750 HO         1 S6A      0.473970
     21 H2'2       -6.2430   -0.9340   -0.9080 HC         1 S6A      0.123406
     22 H2'3       -4.8110   -0.1250   -1.5240 HC         1 S6A      0.123406
     23 C9          0.0190    4.1710    0.0210 CT         1 S6A     -0.158607
     24 H91        -0.1070    5.2440    0.0910 H1         1 S6A      0.109326
     25 H92         0.4530    3.9210   -0.9350 H1         1 S6A      0.109326
     26 H93         0.6690    3.8320    0.8130 H1         1 S6A      0.109326
     27 C11         3.7430   -0.3060   -0.9550 CM         1 S6A     -0.209464
     28 1H11        2.7870    0.7500    0.6790 H1         1 S6A      0.072311
     29 2H11        2.3680    1.3170   -0.9100 H1         1 S6A      0.072311
     30 C13         4.9300   -0.5850   -0.4330 CM         1 S6A     -0.017544
     31 H11         3.5510   -0.6240   -1.9690 HA         1 S6A      0.158359
     32 C14         5.3730   -0.2080    0.9650 CT         1 S6A      0.264641
     33 C15         5.9780   -1.3190   -1.2350 CT         1 S6A     -0.150963
     34 O14         5.7890   -1.3280    1.7050 OH         1 S6A     -0.708748
     35 1H14        4.6080    0.3370    1.5020 H1         1 S6A      0.018471
     36 2H14        6.2420    0.4350    0.9010 H1         1 S6A      0.018471
     37 1H15        6.8640   -0.7010   -1.3590 HC         1 S6A      0.074615
     38 2H15        5.6130   -1.5880   -2.2190 HC         1 S6A      0.074615
     39 3H15        6.2930   -2.2210   -0.7220 HC         1 S6A      0.074615
     40 4HO1        5.0450   -1.8960    1.8550 HO         1 S6A      0.440015
@<TRIPOS>BOND
    1     1     2 1
    2     2     4 1
    3     2    18 1
    4     4     5 1
    5     4    17 1
    6     5     7 1
    7     7     8 1
    8     8     9 1
    9     8    17 1
   10     9    10 1
   11     9    13 1
   12    10    11 1
   13    11    27 1
   14    13    14 1
   15    14    15 1
   16    14    16 1
   17    15    23 1
   18    16    17 1
   19    27    30 1
   20    30    32 1
   21    30    33 1
   22    32    34 1
   23     1    20 1
   24     2     3 1
   25     5     6 1
   26    10    12 1
   27    11    28 1
   28    11    29 1
   29    18    19 1
   30    18    21 1
   31    18    22 1
   32    23    24 1
   33    23    25 1
   34    23    26 1
   35    27    31 1
   36    32    35 1
   37    32    36 1
   38    33    37 1
   39    33    38 1
   40    33    39 1
   41    34    40 1
@<TRIPOS>SUBSTRUCTURE
      1 S6A               1 ****               0 ****  **** 
