@<TRIPOS>MOLECULE
modXNA-fragment:SFF:HEAD01:@N1:HEAD01STRIP:@C1',H1',C2',H2'1,H2'2,H2'3,O4',HHO4
   53    54     1     0     0
SMALL
USER_CHARGES


@<TRIPOS>ATOM
      1 C1'        -5.3320    0.7470    1.5270 CT         1 SFF      0.316672
      2 C2'        -6.1220    1.9070    0.9460 CT         1 SFF     -0.409306
      3 O4'        -6.1070   -0.2040    2.1500 OH         1 SFF     -0.669618
      4 O4         -1.5540   -1.4720   -1.8200 O          1 SFF     -0.564404
      5 C4         -2.4240   -1.0110   -1.1500 C          1 SFF      0.571427
      6 N3         -2.2290    0.1340   -0.3810 N*         1 SFF     -0.238854
      7 C2         -3.2010    0.7390    0.4000 C          1 SFF      0.455795
      8 O2         -2.9710    1.7590    0.9770 O          1 SFF     -0.546872
      9 N1         -4.4310    0.1120    0.4950 N*         1 SFF     -0.155330
     10 C6         -4.6920   -1.0100   -0.2790 CM         1 SFF      0.037150
     11 C5         -3.7700   -1.5590   -1.0630 CM         1 SFF     -0.370929
     12 H1'        -4.6450    1.1170    2.2640 H2         1 SFF      0.108824
     13 H2'1       -5.4470    2.6500    0.5450 HC         1 SFF      0.150293
     14 H2'2       -6.7030    2.3660    1.7390 HC         1 SFF      0.150293
     15 C15        -0.9630    0.7890   -0.4610 CA         1 SFF     -0.016347
     16 C16        -6.0660   -1.6730   -0.2920 CT         1 SFF      0.491836
     17 H5         -3.9780   -2.4080   -1.6770 HA         1 SFF      0.230678
     18 H2'3       -6.7950    1.5840    0.1610 HC         1 SFF      0.150293
     19 HHO4       -6.9880   -0.2080    1.8050 HO         1 SFF      0.449958
     20 F8         -7.0490   -0.7830   -0.2930 F          1 SFF     -0.194210
     21 F9         -6.2450   -2.4850    0.7230 F          1 SFF     -0.194210
     22 F10        -6.2130   -2.3880   -1.3880 F          1 SFF     -0.194210
     23 C24         0.1170    0.3510    0.2680 CM         1 SFF     -0.121426
     24 C25         1.3650    0.9610    0.1650 CA         1 SFF     -0.077811
     25 C26         1.4810    2.0660   -0.6690 CA         1 SFF      0.041348
     26 C27         0.4010    2.5340   -1.3980 CA         1 SFF     -0.210460
     27 C28        -0.8010    1.8780   -1.2920 CM         1 SFF      0.303474
     28 H24         0.0050   -0.4840    0.9310 HA         1 SFF      0.205195
     29 C165        2.4390    0.3440    1.0270 C          1 SFF      0.593064
     30 CL16        2.9640    2.9710   -0.8110 Cl         1 SFF     -0.048167
     31 H27         0.4870    3.3940   -2.0310 HA         1 SFF      0.190626
     32 F171       -1.8300    2.3070   -1.9970 F          1 SFF     -0.191473
     33 N9          3.6540    0.1150    0.4130 N          1 SFF     -0.687106
     34 O11         2.2000   -0.0070    2.1350 O          1 SFF     -0.520854
     35 H9          3.8820    0.6130   -0.4190 H          1 SFF      0.302839
     36 S10         5.0010   -0.4490    1.2400 S6         1 SFF      1.197166
     37 N10         5.9920   -0.6170   -0.0490 NT         1 SFF     -0.285747
     38 O173        4.6560   -1.7060    1.8050 O          1 SFF     -0.546587
     39 O174        5.5260    0.5870    2.0620 O          1 SFF     -0.546587
     40 C12         7.3230   -0.0120    0.0580 CT         1 SFF     -0.297694
     41 C13         5.8360   -1.8550   -0.8530 CT         1 SFF      0.351733
     42 H121        7.9700   -0.5470    0.7430 H1         1 SFF      0.162725
     43 H122        7.2340    1.0090    0.3890 H1         1 SFF      0.162725
     44 H123        7.7690   -0.0190   -0.9250 H1         1 SFF      0.162725
     45 C3          6.7990   -2.9600   -0.4220 CT         1 SFF     -0.318794
     46 C14         5.9510   -1.5330   -2.3420 CT         1 SFF     -0.318794
     47 H13         4.8290   -2.2020   -0.6710 H1         1 SFF      0.004419
     48 H131        6.5830   -3.8680   -0.9760 HC         1 SFF      0.104557
     49 H132        6.6900   -3.1750    0.6340 HC         1 SFF      0.104557
     50 H133        7.8320   -2.6930   -0.6210 HC         1 SFF      0.104557
     51 H141        5.7140   -2.4180   -2.9240 HC         1 SFF      0.104557
     52 H142        6.9510   -1.2210   -2.6200 HC         1 SFF      0.104557
     53 H143        5.2580   -0.7480   -2.6250 HC         1 SFF      0.104557
@<TRIPOS>BOND
    1     1     2 1
    2     1     3 1
    3     1     9 1
    4     4     5 1
    5     5     6 1
    6     5    11 1
    7     6     7 1
    8     6    15 1
    9     7     8 1
   10     7     9 1
   11     9    10 1
   12    10    11 1
   13    10    16 1
   14    15    23 1
   15    15    27 1
   16    16    20 1
   17    16    21 1
   18    16    22 1
   19    23    24 1
   20    24    25 1
   21    24    29 1
   22    25    26 1
   23    25    30 1
   24    26    27 1
   25    27    32 1
   26    29    33 1
   27    29    34 1
   28    33    36 1
   29    36    37 1
   30    36    38 1
   31    36    39 1
   32    37    40 1
   33    37    41 1
   34    41    45 1
   35    41    46 1
   36     1    12 1
   37     2    13 1
   38     2    14 1
   39     2    18 1
   40     3    19 1
   41    11    17 1
   42    23    28 1
   43    26    31 1
   44    33    35 1
   45    40    42 1
   46    40    43 1
   47    40    44 1
   48    41    47 1
   49    45    48 1
   50    45    49 1
   51    45    50 1
   52    46    51 1
   53    46    52 1
   54    46    53 1
@<TRIPOS>SUBSTRUCTURE
      1 SFF               1 ****               0 ****  **** 
