@<TRIPOS>MOLECULE
modXNA-fragment:SHA:HEAD01:@N9:HEAD01STRIP:@C1',H1',O4',HHO4,C2',H2'1,H2'3,H2'2
   46    47     1     0     0
SMALL
USER_CHARGES


@<TRIPOS>ATOM
      1 O4'         5.9790   -2.6840   -0.4440 OH         1 SHA     -0.744565
      2 C1'         5.5880   -1.4150   -0.0220 CT         1 SHA      0.308045
      3 H1'         5.8450   -0.6650   -0.7580 H2         1 SHA      0.060529
      4 N9          4.1370   -1.4570    0.0270 N*         1 SHA     -0.071995
      5 C8          3.3280   -2.5470    0.2480 CK         1 SHA      0.174331
      6 H8          3.7480   -3.5210    0.3750 H5         1 SHA      0.174969
      7 N7          2.0760   -2.2720    0.2630 NB         1 SHA     -0.632900
      8 C5          2.0290   -0.9110    0.0410 CB         1 SHA      0.129166
      9 C6          0.9890    0.0060   -0.0600 CA         1 SHA      0.270702
     10 N6         -0.3030   -0.4620    0.0640 N2         1 SHA     -0.651374
     11 C11        -1.4780    0.2490    0.1650 C          1 SHA      0.767801
     12 H6         -0.3530   -1.4490    0.2040 H          1 SHA      0.364180
     13 N1          1.2600    1.2710   -0.2880 NC         1 SHA     -0.366439
     14 C2          2.5320    1.6390   -0.4010 CQ         1 SHA      0.392798
     15 S2          2.8750    3.3460   -0.6910 S          1 SHA     -0.228351
     16 N3          3.6020    0.8750   -0.3230 NC         1 SHA     -0.599274
     17 C4          3.2990   -0.3930   -0.1070 CB         1 SHA      0.226379
     18 C2'         6.1840   -1.0470    1.3280 CT         1 SHA     -0.359874
     19 H2'1        5.9120   -1.7870    2.0720 HC         1 SHA      0.136545
     20 HHO4        6.9240   -2.7530   -0.4180 HO         1 SHA      0.482729
     21 H2'2        7.2680   -1.0030    1.2590 HC         1 SHA      0.136545
     22 H2'3        5.8290   -0.0740    1.6440 HC         1 SHA      0.136545
     23 N8         -2.5720   -0.5500    0.2770 N          1 SHA     -0.755118
     24 O9         -1.5530    1.4500    0.1790 O          1 SHA     -0.639163
     25 C21         1.2180    4.0720   -0.7190 CT         1 SHA     -0.114589
     26 C10        -3.9120    0.0020    0.1110 CT         1 SHA     -0.135934
     27 1H21        1.3670    5.1350   -0.8630 H1         1 SHA      0.094368
     28 2H21        0.7010    3.8960    0.2110 H1         1 SHA      0.094368
     29 3H21        0.6320    3.6720   -1.5320 H1         1 SHA      0.094368
     30 H8         -2.4940   -1.4960   -0.0290 H          1 SHA      0.388691
     31 C14        -4.3990    0.6270    1.4270 C          1 SHA      0.604726
     32 C15        -4.8620   -1.1210   -0.3520 CT         1 SHA      0.470628
     33 O14        -3.7280    1.6780    1.8460 OH         1 SHA     -0.637698
     34 O15        -5.3320    0.2040    2.0270 O          1 SHA     -0.572452
     35 C17        -6.1730   -0.5740   -0.9130 CT         1 SHA     -0.184398
     36 O19        -4.2080   -1.9490   -1.2880 OH         1 SHA     -0.765383
     37 H10        -3.8780    0.7890   -0.6380 H1         1 SHA      0.074516
     38 H15        -5.0670   -1.7580    0.4950 H1         1 SHA      0.014109
     39 4HO1       -2.9710    1.8720    1.2900 HO         1 SHA      0.461735
     40 C15        -7.1850   -1.6750   -1.2280 CT         1 SHA     -0.066938
     41 1H17       -5.9530   -0.0040   -1.8170 HC         1 SHA      0.065202
     42 2H17       -6.6010    0.1190   -0.2000 HC         1 SHA      0.065202
     43 9HO1       -4.1750   -1.5200   -2.1340 HO         1 SHA      0.446979
     44 1H15       -8.0910   -1.2510   -1.6480 HC         1 SHA      0.035410
     45 2H15       -7.4590   -2.2130   -0.3260 HC         1 SHA      0.035410
     46 3H15       -6.7870   -2.3920   -1.9360 HC         1 SHA      0.035410
@<TRIPOS>BOND
    1     1     2 1
    2     2     4 1
    3     2    18 1
    4     4     5 1
    5     4    17 1
    6     5     7 1
    7     7     8 1
    8     8     9 1
    9     8    17 1
   10     9    10 1
   11     9    13 1
   12    10    11 1
   13    11    23 1
   14    11    24 1
   15    13    14 1
   16    14    15 1
   17    14    16 1
   18    15    25 1
   19    16    17 1
   20    23    26 1
   21    26    31 1
   22    26    32 1
   23    31    33 1
   24    31    34 1
   25    32    35 1
   26    32    36 1
   27    35    40 1
   28     1    20 1
   29     2     3 1
   30     5     6 1
   31    10    12 1
   32    18    19 1
   33    18    21 1
   34    18    22 1
   35    23    30 1
   36    25    27 1
   37    25    28 1
   38    25    29 1
   39    26    37 1
   40    32    38 1
   41    33    39 1
   42    35    41 1
   43    35    42 1
   44    36    43 1
   45    40    44 1
   46    40    45 1
   47    40    46 1
@<TRIPOS>SUBSTRUCTURE
      1 SHA               1 ****               0 ****  **** 
