@<TRIPOS>MOLECULE
modXNA-fragment:SIA:HEAD01:@N9:HEAD01STRIP:@C1',H1',O4',HHO4,C2',H2'1,H2'3,H2'2
   39    40     1     0     0
SMALL
USER_CHARGES


@<TRIPOS>ATOM
      1 O4'        -4.7870   -2.2240    0.6600 OH         1 SIA     -0.743284
      2 C1'        -4.2480   -1.0920    0.0460 CT         1 SIA      0.317182
      3 H1'        -4.4720   -0.2000    0.6170 H2         1 SIA      0.057622
      4 N9         -2.8100   -1.2650    0.1050 N*         1 SIA     -0.104066
      5 C8         -2.0940   -2.4390    0.1220 CK         1 SIA      0.175561
      6 H8         -2.5940   -3.3840    0.1320 H5         1 SIA      0.166441
      7 N7         -0.8240   -2.2700    0.1460 NB         1 SIA     -0.643926
      8 C5         -0.6660   -0.8980    0.1400 CB         1 SIA      0.111025
      9 C6          0.4600   -0.0610    0.1550 CA         1 SIA      0.193849
     10 N6          1.7040   -0.5560    0.2010 N2         1 SIA     -0.342099
     11 C11         2.9120    0.2450    0.0970 CT         1 SIA      0.068078
     12 H6          1.7880   -1.5440    0.1130 H          1 SIA      0.307931
     13 N1          0.2700    1.2560    0.1300 NC         1 SIA     -0.433647
     14 C2         -0.9720    1.7230    0.1040 CQ         1 SIA      0.447593
     15 S2         -1.2030    3.4780    0.0720 S          1 SIA     -0.241084
     16 N3         -2.0980    1.0460    0.0910 NC         1 SIA     -0.663626
     17 C4         -1.8850   -0.2660    0.1130 CB         1 SIA      0.262994
     18 C2'        -4.7370   -0.9300   -1.3850 CT         1 SIA     -0.330324
     19 H2'1       -4.4980   -1.8140   -1.9650 HC         1 SIA      0.121729
     20 HHO4       -5.7310   -2.2030    0.5920 HO         1 SIA      0.475451
     21 H2'2       -5.8140   -0.7830   -1.4000 HC         1 SIA      0.121729
     22 H2'3       -4.2730   -0.0650   -1.8440 HC         1 SIA      0.121729
     23 C8          4.0870   -0.5530    0.5930 CM         1 SIA     -0.342427
     24 1H11        2.7820    1.1230    0.7150 H1         1 SIA      0.057514
     25 2H11        3.0510    0.5940   -0.9180 H1         1 SIA      0.057514
     26 C21         0.4930    4.1030    0.1040 CT         1 SIA     -0.141079
     27 C10         5.1530   -0.9520   -0.0850 CM         1 SIA      0.264217
     28 1H21        0.4100    5.1820    0.0810 H1         1 SIA      0.100848
     29 2H21        1.0500    3.7640   -0.7560 H1         1 SIA      0.100848
     30 3H21        1.0030    3.8000    1.0060 H1         1 SIA      0.100848
     31 H8          4.0230   -0.8160    1.6370 HA         1 SIA      0.168878
     32 C14         5.4140   -0.6890   -1.5480 CT         1 SIA     -0.306529
     33 C15         6.2480   -1.7360    0.5990 CT         1 SIA     -0.306529
     34 1H14        5.5990   -1.6260   -2.0680 HC         1 SIA      0.111404
     35 2H14        6.3080   -0.0820   -1.6680 HC         1 SIA      0.111404
     36 3H14        4.6000   -0.1860   -2.0500 HC         1 SIA      0.111404
     37 1H15        7.1980   -1.2120    0.5270 HC         1 SIA      0.111404
     38 2H15        6.3840   -2.7030    0.1210 HC         1 SIA      0.111404
     39 3H15        6.0330   -1.9030    1.6470 HC         1 SIA      0.111404
@<TRIPOS>BOND
    1     1     2 1
    2     2     4 1
    3     2    18 1
    4     4     5 1
    5     4    17 1
    6     5     7 1
    7     7     8 1
    8     8     9 1
    9     8    17 1
   10     9    10 1
   11     9    13 1
   12    10    11 1
   13    11    23 1
   14    13    14 1
   15    14    15 1
   16    14    16 1
   17    15    26 1
   18    16    17 1
   19    23    27 1
   20    27    32 1
   21    27    33 1
   22     1    20 1
   23     2     3 1
   24     5     6 1
   25    10    12 1
   26    11    24 1
   27    11    25 1
   28    18    19 1
   29    18    21 1
   30    18    22 1
   31    23    31 1
   32    26    28 1
   33    26    29 1
   34    26    30 1
   35    32    34 1
   36    32    35 1
   37    32    36 1
   38    33    37 1
   39    33    38 1
   40    33    39 1
@<TRIPOS>SUBSTRUCTURE
      1 SIA               1 ****               0 ****  **** 
