@<TRIPOS>MOLECULE
modXNA-fragment:SSU:HEAD01:@N1:HEAD01STRIP:@C1',H1',C2',H2'1,H2'2,H2'3,O4',HHO4
   19    19     1     0     0
SMALL
USER_CHARGES


@<TRIPOS>ATOM
      1 C1'         1.9530   -0.2900   -0.1290 CT         1 SSU      0.386490
      2 C2'         2.5290   -0.5360    1.2500 CT         1 SSU     -0.192173
      3 O4'         2.3880   -1.2980   -0.9750 OH         1 SSU     -0.704480
      4 O4         -3.5170   -0.4490    0.1180 O          1 SSU     -0.583040
      5 C4         -2.3270   -0.4810    0.0600 C          1 SSU      0.537531
      6 N3         -1.5920    0.7020   -0.0070 NA         1 SSU     -0.155644
      7 C2         -0.2510    0.8600   -0.0700 C          1 SSU     -0.065509
      8 S8          0.4040    2.4040   -0.1060 S          1 SSU     -0.384809
      9 N1          0.4650   -0.2910   -0.0970 N*         1 SSU      0.194862
     10 C6         -0.1680   -1.5200   -0.0230 CM         1 SSU     -0.117588
     11 C5         -1.4860   -1.6670    0.0520 CM         1 SSU     -0.302330
     12 H1'         2.2380    0.6800   -0.4920 H2         1 SSU     -0.021510
     13 H2'1        3.6100   -0.5080    1.1940 HC         1 SSU      0.077758
     14 H2'2        2.1910    0.2300    1.9370 HC         1 SSU      0.077758
     15 H3         -2.1270    1.5460    0.0080 H          1 SSU      0.247748
     16 H6          0.4980   -2.3570   -0.0510 H4         1 SSU      0.215567
     17 H5         -1.9510   -2.6300    0.1020 HA         1 SSU      0.206499
     18 H2'3        2.2320   -1.5090    1.6260 HC         1 SSU      0.077758
     19 HHO4        2.2780   -1.0340   -1.8800 HO         1 SSU      0.427293
@<TRIPOS>BOND
    1     1     2 1
    2     1     3 1
    3     1     9 1
    4     4     5 1
    5     5     6 1
    6     5    11 1
    7     6     7 1
    8     7     8 1
    9     7     9 1
   10     9    10 1
   11    10    11 1
   12     1    12 1
   13     2    13 1
   14     2    14 1
   15     2    18 1
   16     3    19 1
   17     6    15 1
   18    10    16 1
   19    11    17 1
@<TRIPOS>SUBSTRUCTURE
      1 SSU               1 ****               0 ****  **** 
