@<TRIPOS>MOLECULE
modXNA-fragment:STA:HEAD01:@N9:HEAD01STRIP:@C1',H1',O4',HHO4,C2',H2'1,H2'3,H2'2
   43    44     1     0     0
SMALL
USER_CHARGES


@<TRIPOS>ATOM
      1 O4'         5.8220   -2.4540   -0.4400 OH         1 STA     -0.745161
      2 C1'         5.3550   -1.2250    0.0230 CT         1 STA      0.313879
      3 H1'         5.5950   -0.4320   -0.6740 H2         1 STA      0.057188
      4 N9          3.9080   -1.3400    0.0270 N*         1 STA     -0.078055
      5 C8          3.1490   -2.4770    0.1770 CK         1 STA      0.179270
      6 H8          3.6140   -3.4340    0.2760 H5         1 STA      0.173288
      7 N7          1.8840   -2.2650    0.1660 NB         1 STA     -0.637480
      8 C5          1.7750   -0.9000    0.0000 CB         1 STA      0.135008
      9 C6          0.6940   -0.0320   -0.0930 CA         1 STA      0.259209
     10 N6         -0.5760   -0.5670   -0.0290 N2         1 STA     -0.638527
     11 C11        -1.7860    0.0800    0.0710 C          1 STA      0.776651
     12 H6         -0.5810   -1.5600    0.0670 H          1 STA      0.364629
     13 N1          0.9070    1.2530   -0.2610 NC         1 STA     -0.359632
     14 C2          2.1620    1.6890   -0.3210 CQ         1 STA      0.390665
     15 S2          2.4260    3.4210   -0.5290 S          1 STA     -0.225766
     16 N3          3.2660    0.9750   -0.2420 NC         1 STA     -0.595433
     17 C4          3.0210   -0.3140   -0.0880 CB         1 STA      0.223543
     18 C2'         5.8950   -0.8870    1.4040 CT         1 STA     -0.354120
     19 H2'1        5.6400   -1.6700    2.1090 HC         1 STA      0.134179
     20 HHO4        6.7680   -2.4770   -0.3890 HO         1 STA      0.481519
     21 H2'2        6.9760   -0.7860    1.3700 HC         1 STA      0.134179
     22 H2'3        5.4820    0.0530    1.7500 HC         1 STA      0.134179
     23 N8         -2.8430   -0.7760    0.1120 N          1 STA     -0.828299
     24 O9         -1.9220    1.2740    0.1420 O          1 STA     -0.649783
     25 C21         0.7360    4.0650   -0.5760 CT         1 STA     -0.121185
     26 C10        -4.2030   -0.2800   -0.0710 CT         1 STA     -0.012455
     27 1H21        0.8350    5.1390   -0.6700 H1         1 STA      0.095951
     28 2H21        0.2020    3.8230    0.3300 H1         1 STA      0.095951
     29 3H21        0.1940    3.6730   -1.4220 H1         1 STA      0.095951
     30 H8         -2.7080   -1.6950   -0.2500 H          1 STA      0.404287
     31 C14        -4.7600    0.2600    1.2550 C          1 STA      0.592487
     32 C15        -5.0810   -1.4250   -0.6140 CT         1 STA      0.452773
     33 O14        -4.1540    1.3210    1.7420 OH         1 STA     -0.637001
     34 O15        -5.6900   -0.2330    1.8020 O          1 STA     -0.574242
     35 C17        -6.4100   -0.9290   -1.1640 CT         1 STA     -0.499961
     36 O19        -4.3690   -2.1530   -1.5900 OH         1 STA     -0.759325
     37 H10        -4.1860    0.5410   -0.7840 H1         1 STA      0.058378
     38 H15        -5.2580   -2.1230    0.1890 H1         1 STA      0.028134
     39 4HO1       -3.3900    1.5760    1.2220 HO         1 STA      0.458737
     40 1H17       -6.9830   -1.7720   -1.5340 HC         1 STA      0.163927
     41 2H17       -6.2540   -0.2370   -1.9890 HC         1 STA      0.163927
     42 3H17       -6.9880   -0.4290   -0.4000 HC         1 STA      0.163927
     43 9HO1       -4.3730   -1.6830   -2.4140 HO         1 STA      0.447000
@<TRIPOS>BOND
    1     1     2 1
    2     2     4 1
    3     2    18 1
    4     4     5 1
    5     4    17 1
    6     5     7 1
    7     7     8 1
    8     8     9 1
    9     8    17 1
   10     9    10 1
   11     9    13 1
   12    10    11 1
   13    11    23 1
   14    11    24 1
   15    13    14 1
   16    14    15 1
   17    14    16 1
   18    15    25 1
   19    16    17 1
   20    23    26 1
   21    26    31 1
   22    26    32 1
   23    31    33 1
   24    31    34 1
   25    32    35 1
   26    32    36 1
   27     1    20 1
   28     2     3 1
   29     5     6 1
   30    10    12 1
   31    18    19 1
   32    18    21 1
   33    18    22 1
   34    23    30 1
   35    25    27 1
   36    25    28 1
   37    25    29 1
   38    26    37 1
   39    32    38 1
   40    33    39 1
   41    35    40 1
   42    35    41 1
   43    35    42 1
   44    36    43 1
@<TRIPOS>SUBSTRUCTURE
      1 STA               1 ****               0 ****  **** 
