@<TRIPOS>MOLECULE
modXNA-fragment:T5U:HEAD01:@N1:HEAD01STRIP:@C1',H1',O4',HO4',C2',H2'1,H2'3,H2'2
   34    34     1     0     0
SMALL
USER_CHARGES


@<TRIPOS>ATOM
      1 O4'         2.7260   -2.6880    0.3700 OH         1 T5U     -0.748275
      2 C1'         3.6360   -1.7310   -0.0830 CT         1 T5U      0.313327
      3 H1'         3.9330   -1.9330   -1.0990 H2         1 T5U      0.047020
      4 N1          2.9000   -0.4640   -0.1200 N*         1 T5U     -0.112065
      5 C6          1.9100   -0.1890    0.7980 CM         1 T5U     -0.105449
      6 H6          1.7250   -0.9800    1.4940 H4         1 T5U      0.256114
      7 C5          1.2180    0.9500    0.8280 CM         1 T5U     -0.201293
      8 C8          0.1420    1.2570    1.8490 CT         1 T5U     -0.045217
      9 C4          1.5230    1.9650   -0.1800 C          1 T5U      0.666018
     10 O4          0.9700    3.0240   -0.2820 O          1 T5U     -0.611877
     11 N3          2.5380    1.6150   -1.0520 NA         1 T5U     -0.752399
     12 H3          2.7840    2.2870   -1.7490 H          1 T5U      0.399142
     13 C2          3.2640    0.4540   -1.0740 C          1 T5U      0.592602
     14 O2          4.1460    0.2680   -1.8620 O          1 T5U     -0.613936
     15 C2'         4.8580   -1.6420    0.8170 CT         1 T5U     -0.297516
     16 H2'1        4.5640   -1.4100    1.8350 HC         1 T5U      0.111193
     17 HO4'        3.1000   -3.5530    0.2740 HO         1 T5U      0.483708
     18 H2'2        5.3880   -2.5910    0.8220 HC         1 T5U      0.111193
     19 H2'3        5.5360   -0.8790    0.4570 HC         1 T5U      0.111193
     20 H81         0.0930    0.4440    2.5660 H1         1 T5U      0.118476
     21 N9         -1.1900    1.4870    1.3220 NT         1 T5U     -0.733494
     22 H82         0.4210    2.1490    2.3980 H1         1 T5U      0.118476
     23 C10        -1.7760    0.3670    0.6170 CT         1 T5U      0.352952
     24 H9         -1.1690    2.3000    0.7380 H          1 T5U      0.363550
     25 C11        -3.2590    0.6660    0.3910 CT         1 T5U     -0.444878
     26 1H10       -1.6850   -0.5170    1.2390 H1         1 T5U      0.013446
     27 2H10       -1.2980    0.1450   -0.3350 H1         1 T5U      0.013446
     28 S13        -4.0840   -0.6870   -0.4000 SO         1 T5U      1.156532
     29 1H11       -3.3970    1.5270   -0.2500 H1         1 T5U      0.208104
     30 2H11       -3.7580    0.8410    1.3330 H1         1 T5U      0.208104
     31 O15        -5.5580   -0.1020   -0.5240 OH         1 T5U     -0.575443
     32 O3         -4.1680   -1.8000    0.4940 O          1 T5U     -0.562820
     33 O4         -3.5620   -0.8550   -1.7110 O          1 T5U     -0.562820
     34 5HO1       -6.1590   -0.6550   -0.0320 HO         1 T5U      0.460607
@<TRIPOS>BOND
    1     1     2 1
    2     2     4 1
    3     2    15 1
    4     4     5 1
    5     4    13 1
    6     5     7 1
    7     7     8 1
    8     7     9 1
    9     8    21 1
   10     9    10 1
   11     9    11 1
   12    11    13 1
   13    13    14 1
   14    21    23 1
   15    23    25 1
   16    25    28 1
   17    28    31 1
   18    28    32 1
   19    28    33 1
   20     1    17 1
   21     2     3 1
   22     5     6 1
   23     8    20 1
   24     8    22 1
   25    11    12 1
   26    15    16 1
   27    15    18 1
   28    15    19 1
   29    21    24 1
   30    23    26 1
   31    23    27 1
   32    25    29 1
   33    25    30 1
   34    31    34 1
@<TRIPOS>SUBSTRUCTURE
      1 T5U               1 ****               0 ****  **** 
