@<TRIPOS>MOLECULE
modXNA-fragment:T6A:HEAD01:@N9:HEAD01STRIP:@C1',H1',O4',HHO4,C2',H2'1,H2'3,H2'2
   39    40     1     0     0
SMALL
USER_CHARGES


@<TRIPOS>ATOM
      1 O4'         6.1900   -1.6020    0.0680 OH         1 T6A     -0.740865
      2 C1'         5.6390   -0.3210    0.0440 CT         1 T6A      0.306564
      3 H1'         5.8270    0.1640   -0.9050 H2         1 T6A      0.065660
      4 N9          4.2030   -0.5180    0.1220 N*         1 T6A     -0.098693
      5 C8          3.5230   -1.5500    0.7190 CK         1 T6A      0.192804
      6 H8          4.0500   -2.3620    1.1710 H5         1 T6A      0.167625
      7 N7          2.2460   -1.4410    0.6550 NB         1 T6A     -0.614510
      8 C5          2.0440   -0.2590   -0.0260 CB         1 T6A     -0.025241
      9 C6          0.9000    0.4290   -0.4220 CA         1 T6A      0.567084
     10 N6         -0.3270   -0.1310   -0.1260 N2         1 T6A     -0.786904
     11 C11        -1.5720    0.4560   -0.1620 C          1 T6A      0.831147
     12 H6         -0.2610   -1.0250    0.3120 H          1 T6A      0.380224
     13 N1          1.0220    1.5550   -1.0850 NC         1 T6A     -0.753787
     14 C2          2.2460    2.0080   -1.3370 CQ         1 T6A      0.479102
     15 H2          2.2890    2.9370   -1.8760 H5         1 T6A      0.056553
     16 N3          3.3990    1.4660   -1.0160 NC         1 T6A     -0.764291
     17 C4          3.2470    0.3240   -0.3640 CB         1 T6A      0.341507
     18 C2'         6.1490    0.5460    1.1840 CT         1 T6A     -0.356256
     19 H2'1        5.9450    0.0720    2.1370 HC         1 T6A      0.134914
     20 HHO4        7.1340   -1.5430    0.1170 HO         1 T6A      0.482269
     21 H2'2        7.2210    0.6970    1.0910 HC         1 T6A      0.134914
     22 H2'3        5.6710    1.5180    1.1610 HC         1 T6A      0.134914
     23 N1         -2.5720   -0.4080    0.1650 N          1 T6A     -0.864981
     24 O10        -1.7770    1.6130   -0.4200 O          1 T6A     -0.642113
     25 H9         -2.3950   -1.3820    0.0440 H          1 T6A      0.420486
     26 C11        -3.9640   -0.0460   -0.0800 CT         1 T6A     -0.017374
     27 C10        -4.7920   -1.3350   -0.2450 CT         1 T6A      0.445126
     28 H11        -4.0210    0.5460   -0.9900 H1         1 T6A      0.060537
     29 C12        -4.5040    0.8130    1.0740 C          1 T6A      0.599516
     30 C11        -6.1700   -1.0720   -0.8350 CT         1 T6A     -0.462952
     31 H10        -4.8960   -1.7950    0.7260 H1         1 T6A      0.033246
     32 O13        -4.0770   -2.2680   -1.0240 OH         1 T6A     -0.760321
     33 O14        -3.9510    1.9980    1.2150 OH         1 T6A     -0.637190
     34 O15        -5.3770    0.4440    1.7870 O          1 T6A     -0.577165
     35 1H11       -6.7040   -2.0100   -0.9330 HC         1 T6A      0.149552
     36 2H11       -6.0870   -0.6240   -1.8240 HC         1 T6A      0.149552
     37 3H11       -6.7460   -0.4100   -0.2050 HC         1 T6A      0.149552
     38 3HO1       -4.1340   -2.0350   -1.9420 HO         1 T6A      0.449673
     39 4HO1       -3.2260    2.1380    0.6030 HO         1 T6A      0.454006
@<TRIPOS>BOND
    1     1     2 1
    2     2     4 1
    3     2    18 1
    4     4     5 1
    5     4    17 1
    6     5     7 1
    7     7     8 1
    8     8     9 1
    9     8    17 1
   10     9    10 1
   11     9    13 1
   12    10    11 1
   13    11    23 1
   14    11    24 1
   15    13    14 1
   16    14    16 1
   17    16    17 1
   18    23    26 1
   19    26    27 1
   20    26    29 1
   21    27    30 1
   22    27    32 1
   23    29    33 1
   24    29    34 1
   25     1    20 1
   26     2     3 1
   27     5     6 1
   28    10    12 1
   29    14    15 1
   30    18    19 1
   31    18    21 1
   32    18    22 1
   33    23    25 1
   34    26    28 1
   35    27    31 1
   36    30    35 1
   37    30    36 1
   38    30    37 1
   39    32    38 1
   40    33    39 1
@<TRIPOS>SUBSTRUCTURE
      1 T6A               1 ****               0 ****  **** 
