@<TRIPOS>MOLECULE
modXNA-fragment:TCA:HEAD01:@N9:HEAD01STRIP:@C1',H1',O4',HHO4,C2',H2'1,H2'3,H2'2
   39    40     1     0     0
SMALL
USER_CHARGES


@<TRIPOS>ATOM
      1 O4'         6.2990   -1.6600   -0.1220 OH         1 TCA     -0.685074
      2 C1'         5.6950   -0.4130   -0.1370 CT         1 TCA      0.340334
      3 H1'         5.9050    0.0200   -1.1030 H2         1 TCA      0.098188
      4 N9          4.2380   -0.5940   -0.0480 N*         1 TCA     -0.242217
      5 C8          3.5480   -1.7790    0.0120 CK         1 TCA      0.223204
      6 H8          4.0670   -2.7110    0.0550 H5         1 TCA      0.132713
      7 N7          2.2710   -1.6490    0.0020 NB         1 TCA     -0.616972
      8 C5          2.0770   -0.2890   -0.0900 CB         1 TCA     -0.031798
      9 C6          0.9330    0.5040   -0.1610 CA         1 TCA      0.569631
     10 N6         -0.2950   -0.1210   -0.0930 N2         1 TCA     -0.785055
     11 C11        -1.5350    0.3960   -0.3990 C          1 TCA      0.808140
     12 H6         -0.2410   -1.1030    0.0720 H          1 TCA      0.381863
     13 N1          1.0560    1.8070   -0.2500 NC         1 TCA     -0.759417
     14 C2          2.2810    2.3220   -0.2910 CQ         1 TCA      0.477321
     15 H2          2.3260    3.3920   -0.3760 H5         1 TCA      0.060316
     16 N3          3.4320    1.6920   -0.2370 NC         1 TCA     -0.772166
     17 C4          3.2830    0.3790   -0.1290 CB         1 TCA      0.385540
     18 C2'         6.2090    0.4900    0.9700 CT         1 TCA     -0.365999
     19 H2'1        5.9880    0.0560    1.9420 HC         1 TCA      0.140076
     20 HHO4        6.5010   -1.9150    0.7690 HO         1 TCA      0.444992
     21 H2'2        7.2830    0.5980    0.8680 HC         1 TCA      0.140076
     22 H2'3        5.7500    1.4660    0.9170 HC         1 TCA      0.140076
     23 N19        -2.5530   -0.4280   -0.0480 N          1 TCA     -0.788032
     24 O11        -1.7240    1.4510   -0.9450 O          1 TCA     -0.636838
     25 H9         -2.4190   -1.1610    0.6140 H          1 TCA      0.397446
     26 C10        -3.9320   -0.1300   -0.3960 CT         1 TCA     -0.084220
     27 C10        -4.7140   -1.4500   -0.4100 CT         1 TCA      0.381363
     28 H10        -3.9360    0.3060   -1.3870 H1         1 TCA      0.100412
     29 C12        -4.5070    0.9010    0.5870 C          1 TCA      0.628774
     30 C11        -6.1460   -1.3150   -0.9160 CT         1 TCA     -0.390075
     31 O12        -4.6410   -2.0630    0.8490 OH         1 TCA     -0.727624
     32 H10        -4.1750   -2.1080   -1.0800 H1         1 TCA      0.040426
     33 O14        -4.0050    2.1120    0.5030 OH         1 TCA     -0.649202
     34 O15        -5.3460    0.6310    1.3880 O          1 TCA     -0.579424
     35 1H11       -6.6020   -2.2970   -0.9470 HC         1 TCA      0.128743
     36 2H11       -6.1630   -0.9020   -1.9200 HC         1 TCA      0.128743
     37 3H11       -6.7400   -0.6810   -0.2720 HC         1 TCA      0.128743
     38 2HO1       -5.1300   -1.5270    1.4640 HO         1 TCA      0.447567
     39 4HO1       -3.2720    2.1620   -0.1150 HO         1 TCA      0.460309
@<TRIPOS>BOND
    1     1     2 1
    2     2     4 1
    3     2    18 1
    4     4     5 1
    5     4    17 1
    6     5     7 1
    7     7     8 1
    8     8     9 1
    9     8    17 1
   10     9    10 1
   11     9    13 1
   12    10    11 1
   13    11    23 1
   14    11    24 1
   15    13    14 1
   16    14    16 1
   17    16    17 1
   18    23    26 1
   19    26    27 1
   20    26    29 1
   21    27    30 1
   22    27    31 1
   23    29    33 1
   24    29    34 1
   25     1    20 1
   26     2     3 1
   27     5     6 1
   28    10    12 1
   29    14    15 1
   30    18    19 1
   31    18    21 1
   32    18    22 1
   33    23    25 1
   34    26    28 1
   35    27    32 1
   36    30    35 1
   37    30    36 1
   38    30    37 1
   39    31    38 1
   40    33    39 1
@<TRIPOS>SUBSTRUCTURE
      1 TCA               1 ****               0 ****  **** 
