@<TRIPOS>MOLECULE
modXNA-fragment:TIA:HEAD01:@N9:HEAD01STRIP:@C1',H1',O4',HHO4,C2',H2'1,H2'3,H2'2
   44    47     1     0     0
SMALL
USER_CHARGES


@<TRIPOS>ATOM
      1 O4'         7.1600   -0.4000    0.5810 OH         1 TIA     -0.737675
      2 C1'         6.0130   -1.1800    0.4200 CT         1 TIA      0.429746
      3 H1'         5.6840   -1.5800    1.3710 H2         1 TIA      0.061537
      4 N9          4.9760   -0.2750   -0.0250 N*         1 TIA     -0.167086
      5 C8          5.1100    0.8560   -0.7710 CK         1 TIA      0.240986
      6 H8          6.0690    1.2230   -1.0630 H5         1 TIA      0.150790
      7 N7          3.9770    1.4120   -1.0410 NB         1 TIA     -0.639548
      8 C5          3.0410    0.6020   -0.4540 CB         1 TIA     -0.142982
      9 C6          1.5650    0.8000   -0.4070 CT         1 TIA      0.827844
     10 N6          1.2040    1.9990    0.3270 NT         1 TIA     -0.799031
     11 C11         0.0080    2.6880   -0.1230 CT         1 TIA      0.133426
     12 H6          1.9870    2.6210    0.3430 H          1 TIA      0.381227
     13 N1          1.0420   -0.4180    0.2270 NT         1 TIA     -1.052867
     14 C2          1.7710   -1.3540    0.8680 CM         1 TIA      0.724756
     15 H2          1.1890   -2.0980    1.3840 HA         1 TIA      0.044410
     16 N3          3.0430   -1.4530    0.8880 NT         1 TIA     -0.850477
     17 C4          3.6330   -0.4310    0.1770 CB         1 TIA      0.521697
     18 C2'         6.2330   -2.3150   -0.5700 CT         1 TIA     -0.439042
     19 H2'1        5.3190   -2.8820   -0.6980 HC         1 TIA      0.120182
     20 HHO4        7.8970   -0.9610    0.7820 HO         1 TIA      0.468850
     21 H2'2        7.0010   -2.9920   -0.2040 HC         1 TIA      0.120182
     22 H2'3        6.5450   -1.9180   -1.5290 HC         1 TIA      0.120182
     23 1H11        0.0210    3.6790    0.3230 H1         1 TIA      0.043004
     24 C10        -1.2400    1.9750    0.3240 CM         1 TIA     -0.229101
     25 2H11       -0.0170    2.8270   -1.2060 H1         1 TIA      0.043004
     26 C11        -2.1960    1.5540   -0.4900 CT         1 TIA     -0.171577
     27 H10        -1.3140    1.8100    1.3870 HA         1 TIA      0.175523
     28 H11        -2.0670    1.6980   -1.5510 HA         1 TIA      0.153436
     29 C14        -3.4490    0.8670   -0.0980 CA         1 TIA      0.089613
     30 C31        -4.0640    0.0140   -1.0340 CA         1 TIA     -0.403407
     31 C32        -5.2090   -0.6240   -0.6570 CB         1 TIA      0.350371
     32 C33        -5.7700   -0.4490    0.5920 CB         1 TIA      0.317537
     33 C34        -5.2080    0.3820    1.5190 CA         1 TIA     -0.346176
     34 C35        -4.0340    1.0450    1.1490 CA         1 TIA     -0.204371
     35 H31        -3.6430   -0.1380   -2.0110 HA         1 TIA      0.217046
     36 H34        -5.6530    0.5270    2.4850 HA         1 TIA      0.219192
     37 H35        -3.5880    1.7280    1.8480 HA         1 TIA      0.167320
     38 O38        -6.8880   -1.2120    0.6890 OS         1 TIA     -0.441790
     39 C39        -7.1220   -1.7370   -0.5970 CT         1 TIA      0.392652
     40 O40        -5.9650   -1.5030   -1.3640 OS         1 TIA     -0.445169
     41 1H39       -7.3020   -2.7980   -0.5270 H2         1 TIA      0.050741
     42 2H39       -7.9660   -1.2300   -1.0480 H2         1 TIA      0.050741
     43 H6          1.1390    0.8460   -1.4080 H2         1 TIA     -0.005764
     44 H1          0.0550   -0.4570    0.3500 H          1 TIA      0.460070
@<TRIPOS>BOND
    1     1     2 1
    2     2     4 1
    3     2    18 1
    4     4     5 1
    5     4    17 1
    6     5     7 1
    7     7     8 1
    8     8     9 1
    9     8    17 1
   10     9    10 1
   11     9    13 1
   12    10    11 1
   13    11    24 1
   14    13    14 1
   15    14    16 1
   16    16    17 1
   17    24    26 1
   18    26    29 1
   19    29    30 1
   20    29    34 1
   21    30    31 1
   22    31    32 1
   23    31    40 1
   24    32    33 1
   25    32    38 1
   26    33    34 1
   27    38    39 1
   28    39    40 1
   29     1    20 1
   30     2     3 1
   31     5     6 1
   32     9    43 1
   33    10    12 1
   34    11    23 1
   35    11    25 1
   36    13    44 1
   37    14    15 1
   38    18    19 1
   39    18    21 1
   40    18    22 1
   41    24    27 1
   42    26    28 1
   43    30    35 1
   44    33    36 1
   45    34    37 1
   46    39    41 1
   47    39    42 1
@<TRIPOS>SUBSTRUCTURE
      1 TIA               1 ****               0 ****  **** 
