@<TRIPOS>MOLECULE
modXNA-fragment:TIG:HEAD01:@N9:HEAD01STRIP:@C1',H1',O4',HHO4,C2',H2'1,H2'3,H2'2
   43    46     1     0     0
SMALL
USER_CHARGES


@<TRIPOS>ATOM
      1 O4'         5.8700    3.0340   -0.8480 OH         1 TIG     -0.740396
      2 C1'         4.9320    2.4590    0.0110 CT         1 TIG      0.391214
      3 H1'         3.9240    2.6890   -0.3100 H2         1 TIG      0.069291
      4 N9          5.0870    1.0280   -0.1350 N*         1 TIG      0.021425
      5 C8          6.2580    0.3200   -0.3020 CK         1 TIG      0.127977
      6 H8          7.1960    0.8250   -0.3970 H5         1 TIG      0.173929
      7 N7          6.0800   -0.9440   -0.3520 NB         1 TIG     -0.556277
      8 C5          4.7200   -1.1120   -0.2080 CB         1 TIG      0.027678
      9 C6          3.9180   -2.2980   -0.1860 C          1 TIG      0.685645
     10 O6          4.2090   -3.4530   -0.2830 O          1 TIG     -0.580001
     11 N1          2.5520   -1.9520   -0.0170 NA         1 TIG     -0.705703
     12 H1          1.9480   -2.7430    0.0170 H          1 TIG      0.368924
     13 C2          2.0490   -0.6990    0.1200 CA         1 TIG      0.931656
     14 N2          0.7150   -0.5660    0.3150 N2         1 TIG     -0.691183
     15 C15        -0.2850   -1.5870    0.0480 CT         1 TIG      0.167500
     16 H2          0.4140    0.3810    0.2390 H          1 TIG      0.384120
     17 N3          2.7830    0.3680    0.0930 NC         1 TIG     -0.838537
     18 C4          4.1000    0.1010   -0.0730 CB         1 TIG      0.297203
     19 C2'         5.1330    2.9040    1.4520 CT         1 TIG     -0.468541
     20 H2'1        4.4130    2.4180    2.0990 HC         1 TIG      0.128913
     21 HHO4        5.8950    3.9710   -0.7100 HO         1 TIG      0.473584
     22 H2'2        4.9930    3.9790    1.5400 HC         1 TIG      0.128913
     23 H2'3        6.1340    2.6560    1.7870 HC         1 TIG      0.128913
     24 C9         -1.6380   -1.0860    0.4660 CM         1 TIG     -0.273727
     25 C11        -2.6640   -0.9750   -0.3610 CT         1 TIG     -0.093348
     26 C13        -4.0290   -0.5180   -0.0140 CA         1 TIG      0.058388
     27 C31        -4.5530   -0.6570    1.2620 CA         1 TIG     -0.197320
     28 C32        -5.8370   -0.2100    1.5870 CA         1 TIG     -0.348859
     29 C33        -6.5650    0.3660    0.5850 CB         1 TIG      0.346215
     30 C34        -6.0610    0.4970   -0.6940 CB         1 TIG      0.322737
     31 C35        -4.8110    0.0650   -1.0290 CA         1 TIG     -0.375187
     32 O39        -6.9880    1.1040   -1.4770 OS         1 TIG     -0.445761
     33 C40        -8.1600    1.2080   -0.7030 CT         1 TIG      0.424051
     34 O41        -7.8170    0.8850    0.6250 OS         1 TIG     -0.450036
     35 1H15       -0.2970   -1.8750   -1.0000 H1         1 TIG      0.053766
     36 2H15       -0.0470   -2.4720    0.6310 H1         1 TIG      0.053766
     37 H9         -1.7310   -0.8110    1.5040 HA         1 TIG      0.169234
     38 H11        -2.5140   -1.2210   -1.4000 HA         1 TIG      0.134338
     39 H31        -3.9710   -1.1400    2.0250 HA         1 TIG      0.168973
     40 H32        -6.2380   -0.3230    2.5760 HA         1 TIG      0.220050
     41 H35        -4.4370    0.1780   -2.0290 HA         1 TIG      0.220112
     42 1H40       -8.5330    2.2180   -0.7440 H2         1 TIG      0.043181
     43 2H40       -8.9000    0.5060   -1.0670 H2         1 TIG      0.043181
@<TRIPOS>BOND
    1     1     2 1
    2     2     4 1
    3     2    19 1
    4     4     5 1
    5     4    18 1
    6     5     7 1
    7     7     8 1
    8     8     9 1
    9     8    18 1
   10     9    10 1
   11     9    11 1
   12    11    13 1
   13    13    14 1
   14    13    17 1
   15    14    15 1
   16    15    24 1
   17    17    18 1
   18    24    25 1
   19    25    26 1
   20    26    27 1
   21    26    31 1
   22    27    28 1
   23    28    29 1
   24    29    30 1
   25    29    34 1
   26    30    31 1
   27    30    32 1
   28    32    33 1
   29    33    34 1
   30     1    21 1
   31     2     3 1
   32     5     6 1
   33    11    12 1
   34    14    16 1
   35    15    35 1
   36    15    36 1
   37    19    20 1
   38    19    22 1
   39    19    23 1
   40    24    37 1
   41    25    38 1
   42    27    39 1
   43    28    40 1
   44    31    41 1
   45    33    42 1
   46    33    43 1
@<TRIPOS>SUBSTRUCTURE
      1 TIG               1 ****               0 ****  **** 
