@<TRIPOS>MOLECULE
modXNA-fragment:TIP:HEAD01:@N1:HEAD01STRIP:@C1',H1',C2',H2'1,H2'2,H2'3,O4',HHO4
   34    35     1     0     0
SMALL
USER_CHARGES


@<TRIPOS>ATOM
      1 C1'        -0.3530    2.4780   -0.3250 CT         1 TIP      0.262557
      2 C2'         0.8520    2.7880    0.5380 CT         1 TIP     -0.268704
      3 O4'         0.0030    2.5310   -1.6670 OH         1 TIP     -0.635950
      4 O4         -3.5480   -1.9120    0.3430 O          1 TIP     -0.603704
      5 C4         -2.7500   -1.0350    0.2480 C          1 TIP      0.714896
      6 N3         -2.9790    0.2040    0.8020 NA         1 TIP     -0.775246
      7 C2         -2.1990    1.3200    0.7090 C          1 TIP      0.640531
      8 O2         -2.5440    2.3530    1.2060 O          1 TIP     -0.615337
      9 N1         -1.0190    1.1780    0.0010 N*         1 TIP     -0.372658
     10 C6         -0.6060   -0.0730   -0.4740 CM         1 TIP      0.281330
     11 C5         -1.4360   -1.1260   -0.4000 CM         1 TIP     -0.341799
     12 H1'        -1.1140    3.2060   -0.1170 H2         1 TIP      0.089610
     13 H2'1        0.5760    2.7110    1.5830 HC         1 TIP      0.113172
     14 H2'2        1.1600    3.8070    0.3350 HC         1 TIP      0.113172
     15 H3         -3.8380    0.3230    1.2970 H          1 TIP      0.403545
     16 C16         0.8000   -0.2260   -1.0430 CT         1 TIP     -0.008089
     17 CL17       -1.0460   -2.7080   -0.9910 Cl         1 TIP     -0.031527
     18 H2'3        1.6850    2.1340    0.3400 HC         1 TIP      0.113172
     19 HHO4       -0.7630    2.6930   -2.2010 HO         1 TIP      0.431285
     20 H161        0.7960   -1.0650   -1.7250 H1         1 TIP      0.068900
     21 H162        1.0380    0.6510   -1.6120 H1         1 TIP      0.068900
     22 N9          1.7930   -0.4010   -0.0050 NT         1 TIP     -0.280407
     23 C24         1.7200   -1.5330    0.9150 CT         1 TIP     -0.147778
     24 C25         2.9550   -1.3320    1.7910 CT         1 TIP     -0.057999
     25 C26         3.9660   -0.7400    0.8080 CT         1 TIP     -0.172829
     26 C27         3.1150   -0.0250   -0.2190 CM         1 TIP      0.533601
     27 H241        0.7980   -1.5130    1.4790 H1         1 TIP      0.124612
     28 H242        1.7640   -2.4790    0.3790 H1         1 TIP      0.124612
     29 H251        2.7320   -0.6220    2.5800 HC         1 TIP      0.060324
     30 H252        3.2880   -2.2540    2.2510 HC         1 TIP      0.060324
     31 H261        4.6830   -0.0630    1.2500 HC         1 TIP      0.104899
     32 H262        4.5210   -1.5210    0.2960 HC         1 TIP      0.104899
     33 N48         3.6090    0.7540   -1.0720 N*         1 TIP     -0.992781
     34 H48         2.9430    1.1410   -1.7140 H          1 TIP      0.447042
@<TRIPOS>BOND
    1     1     2 1
    2     1     3 1
    3     1     9 1
    4     4     5 1
    5     5     6 1
    6     5    11 1
    7     6     7 1
    8     7     8 1
    9     7     9 1
   10     9    10 1
   11    10    11 1
   12    10    16 1
   13    11    17 1
   14    16    22 1
   15    22    23 1
   16    22    26 1
   17    23    24 1
   18    24    25 1
   19    25    26 1
   20    26    33 1
   21     1    12 1
   22     2    13 1
   23     2    14 1
   24     2    18 1
   25     3    19 1
   26     6    15 1
   27    16    20 1
   28    16    21 1
   29    23    27 1
   30    23    28 1
   31    24    29 1
   32    24    30 1
   33    25    31 1
   34    25    32 1
   35    33    34 1
@<TRIPOS>SUBSTRUCTURE
      1 TIP               1 ****               0 ****  **** 
