@<TRIPOS>MOLECULE
modXNA-fragment:TMA:HEAD01:@N9:HEAD01STRIP:@C1',H1',O4',HHO4,C2',H2'1,H2'3,H2'2
   44    45     1     0     0
SMALL
USER_CHARGES


@<TRIPOS>ATOM
      1 O4'        -5.6650   -1.5030    0.6520 OH         1 TMA     -0.739135
      2 C1'        -4.8050   -0.5390    0.1260 CT         1 TMA      0.317739
      3 H1'        -4.7060    0.3010    0.8010 H2         1 TMA      0.057422
      4 N9         -3.5020   -1.1710    0.0680 N*         1 TMA     -0.121351
      5 C8         -3.2110   -2.5070   -0.0840 CK         1 TMA      0.186628
      6 H8         -3.9920   -3.2340   -0.1380 H5         1 TMA      0.161824
      7 N7         -1.9550   -2.7610   -0.1280 NB         1 TMA     -0.630646
      8 C5         -1.3560   -1.5230   -0.0020 CB         1 TMA      0.046680
      9 C6         -0.0180   -1.1050    0.0290 CA         1 TMA      0.262545
     10 N6          0.9960   -1.9700   -0.0720 N2         1 TMA     -0.241291
     11 C11         2.3980   -1.5990   -0.0510 CT         1 TMA     -0.125297
     12 H6          0.7500   -2.9280   -0.1770 H          1 TMA      0.261409
     13 N1          0.2360    0.1960    0.1640 NC         1 TMA     -0.550804
     14 C2         -0.7850    1.0380    0.2640 CQ         1 TMA      0.485091
     15 S2         -0.4260    2.7640    0.4520 S          1 TMA     -0.206659
     16 N3         -2.0700    0.7700    0.2480 NC         1 TMA     -0.688807
     17 C4         -2.3000   -0.5340    0.1180 CB         1 TMA      0.300565
     18 C2'        -5.2570   -0.0550   -1.2440 CT         1 TMA     -0.305617
     19 H2'1       -5.3380   -0.8920   -1.9280 HC         1 TMA      0.111955
     20 HHO4       -6.5520   -1.1690    0.6570 HO         1 TMA      0.473123
     21 H2'2       -6.2260    0.4310   -1.1690 HC         1 TMA      0.111955
     22 H2'3       -4.5500    0.6630   -1.6400 HC         1 TMA      0.111955
     23 C8          3.2720   -2.8540   -0.1300 CT         1 TMA      0.034648
     24 1H11        2.6140   -1.0470    0.8560 H1         1 TMA      0.078246
     25 2H11        2.6190   -0.9410   -0.8840 H1         1 TMA      0.078246
     26 C11         1.3910    2.7900    0.3830 CT         1 TMA     -0.088606
     27 C10         4.7460   -2.5290   -0.0800 CM         1 TMA      0.122743
     28 H81         3.0360   -3.3860   -1.0490 HC         1 TMA      0.019171
     29 H82         3.0050   -3.5160    0.6930 HC         1 TMA      0.019171
     30 S3          2.0260    4.4820    0.3800 S          1 TMA     -0.203404
     31 1H11        1.7340    2.2550   -0.4880 H2         1 TMA      0.137861
     32 2H11        1.7970    2.3060    1.2570 H2         1 TMA      0.137861
     33 C14         5.4240   -2.4600    1.2590 CT         1 TMA     -0.296068
     34 C15         5.5880   -2.7410   -1.3070 CT         1 TMA     -0.296068
     35 C16         1.6660    4.9870   -1.3220 CT         1 TMA     -0.092715
     36 1H14        6.3120   -1.8350    1.2230 HC         1 TMA      0.106016
     37 2H14        5.7410   -3.4490    1.5970 HC         1 TMA      0.106016
     38 3H14        4.7650   -2.0580    2.0230 HC         1 TMA      0.106016
     39 1H15        6.5060   -2.1640   -1.2620 HC         1 TMA      0.106016
     40 2H15        5.0560   -2.4540   -2.2100 HC         1 TMA      0.106016
     41 3H15        5.8720   -3.7890   -1.4230 HC         1 TMA      0.106016
     42 1H16        2.0360    5.9970   -1.4340 H1         1 TMA      0.086379
     43 2H16        0.6030    4.9790   -1.5190 H1         1 TMA      0.086379
     44 3H16        2.1740    4.3470   -2.0310 H1         1 TMA      0.086379
@<TRIPOS>BOND
    1     1     2 1
    2     2     4 1
    3     2    18 1
    4     4     5 1
    5     4    17 1
    6     5     7 1
    7     7     8 1
    8     8     9 1
    9     8    17 1
   10     9    10 1
   11     9    13 1
   12    10    11 1
   13    11    23 1
   14    13    14 1
   15    14    15 1
   16    14    16 1
   17    15    26 1
   18    16    17 1
   19    23    27 1
   20    26    30 1
   21    27    33 1
   22    27    34 1
   23    30    35 1
   24     1    20 1
   25     2     3 1
   26     5     6 1
   27    10    12 1
   28    11    24 1
   29    11    25 1
   30    18    19 1
   31    18    21 1
   32    18    22 1
   33    23    28 1
   34    23    29 1
   35    26    31 1
   36    26    32 1
   37    33    36 1
   38    33    37 1
   39    33    38 1
   40    34    39 1
   41    34    40 1
   42    34    41 1
   43    35    42 1
   44    35    43 1
   45    35    44 1
@<TRIPOS>SUBSTRUCTURE
      1 TMA               1 ****               0 ****  **** 
