@<TRIPOS>MOLECULE
modXNA-fragment:TMB:HEAD01:@N9:HEAD01STRIP:@C1',H1'1,H1'2,O4',HHO4
   32    33     1     0     0
SMALL
USER_CHARGES


@<TRIPOS>ATOM
      1 C1'         3.7040   -1.6440   -0.2230 CT         1 TMB      0.236213
      2 O4'         4.7580   -0.8630    0.2000 OH         1 TMB     -0.631535
      3 N6         -1.1850    1.7970    0.5510 N2         1 TMB     -0.659144
      4 C6          0.0080    1.4280    0.0680 CA         1 TMB      0.557807
      5 C5          0.7070    0.2450    0.3760 CB         1 TMB     -0.110756
      6 N7          0.4670   -0.8450    1.2000 NB         1 TMB     -0.476980
      7 C8          1.4960   -1.5920    1.0520 CK         1 TMB      0.121010
      8 N9          2.4200   -1.0990    0.1710 N*         1 TMB     -0.253200
      9 C4          1.9220    0.0920   -0.2580 CB         1 TMB      0.458382
     10 N3          2.5060    0.9310   -1.1060 NC         1 TMB     -0.802047
     11 C2          1.7570    1.9930   -1.3140 CQ         1 TMB      0.508358
     12 N1          0.5770    2.2780   -0.7940 NC         1 TMB     -0.865390
     13 H1'1        3.8060   -2.6150    0.2370 H2         1 TMB      0.049691
     14 H6         -1.4980    2.6770    0.2030 H          1 TMB      0.365030
     15 C15        -2.0120    1.1230    1.5350 CT         1 TMB      0.346469
     16 H8          1.6510   -2.5280    1.5490 H5         1 TMB      0.152514
     17 H2          2.1520    2.7290   -1.9910 H5         1 TMB      0.047016
     18 H1'2        3.7030   -1.7570   -1.2990 H2         1 TMB      0.049691
     19 HHO4        4.7430   -0.0440   -0.2820 HO         1 TMB      0.427339
     20 C20        -3.3340    0.6140    0.9570 CT         1 TMB     -0.126743
     21 C21        -3.1680   -0.4770   -0.1010 CT         1 TMB      0.024699
     22 C22        -4.5040   -1.0060   -0.6080 CT         1 TMB      0.253013
     23 O23        -4.3520   -1.9670   -1.6200 OH         1 TMB     -0.717736
     24 H151       -1.4490    0.3050    1.9550 H1         1 TMB     -0.052905
     25 H152       -2.2190    1.8220    2.3400 H1         1 TMB     -0.052905
     26 H201       -3.9310    0.2380    1.7850 HC         1 TMB      0.015748
     27 H202       -3.8880    1.4530    0.5370 HC         1 TMB      0.015748
     28 H211       -2.6050   -0.0980   -0.9480 HC         1 TMB     -0.002083
     29 H212       -2.5890   -1.2990    0.3170 HC         1 TMB     -0.002083
     30 H221       -5.0890   -1.4090    0.2180 H1         1 TMB     -0.006362
     31 H222       -5.0830   -0.2040   -1.0490 H1         1 TMB     -0.006362
     32 H232       -3.8910   -2.7180   -1.2720 HO         1 TMB      0.421153
@<TRIPOS>BOND
    1     1     2 1
    2     1     8 1
    3     3     4 1
    4     3    15 1
    5     4     5 1
    6     4    12 1
    7     5     6 1
    8     5     9 1
    9     6     7 1
   10     7     8 1
   11     8     9 1
   12     9    10 1
   13    10    11 1
   14    11    12 1
   15    15    20 1
   16    20    21 1
   17    21    22 1
   18    22    23 1
   19     1    13 1
   20     1    18 1
   21     2    19 1
   22     3    14 1
   23     7    16 1
   24    11    17 1
   25    15    24 1
   26    15    25 1
   27    20    26 1
   28    20    27 1
   29    21    28 1
   30    21    29 1
   31    22    30 1
   32    22    31 1
   33    23    32 1
@<TRIPOS>SUBSTRUCTURE
      1 TMB               1 ****               0 ****  **** 
