@<TRIPOS>MOLECULE
modXNA-fragment:TMC:HEAD01:@N3:HEAD01STRIP:@C1,C2,O1,H1,H2,H3,H7,H8
   40    41     1     0     0
SMALL
USER_CHARGES


@<TRIPOS>ATOM
      1 C1         -6.0900   -0.6500    0.1500 CT         1 TMC      0.299384
      2 C2         -6.1670   -2.0190    0.8110 CT         1 TMC     -0.338476
      3 O1         -7.0100    0.2470    0.6940 OH         1 TMC     -0.734852
      4 N1         -0.3990    1.1790   -0.0370 N2         1 TMC     -0.645719
      5 C3         -1.4390    0.4620   -0.4960 CA         1 TMC      0.584071
      6 C4         -2.6930    0.5090    0.1320 CB         1 TMC     -0.082278
      7 N2         -3.1610    1.1710    1.2490 NB         1 TMC     -0.621722
      8 C5         -4.3910    0.8200    1.3310 CK         1 TMC      0.204850
      9 N3         -4.7900   -0.0380    0.3350 N*         1 TMC     -0.139760
     10 C6         -3.6890   -0.2440   -0.4410 CB         1 TMC      0.396792
     11 N4         -3.5750   -1.0120   -1.5230 NC         1 TMC     -0.820978
     12 C7         -2.3600   -0.9750   -2.0150 CQ         1 TMC      0.515957
     13 N5         -1.3030   -0.3000   -1.5750 NC         1 TMC     -0.847307
     14 H1         -6.2310   -0.7480   -0.9190 H2         1 TMC      0.068649
     15 H2         -7.1420   -2.4660    0.6390 HC         1 TMC      0.126559
     16 H3         -5.4160   -2.6790    0.3930 HC         1 TMC      0.126559
     17 C8          0.9590    1.0530   -0.5280 CT         1 TMC      0.128351
     18 H4         -0.5430    1.6270    0.8410 H          1 TMC      0.344693
     19 H5         -5.0820    1.1520    2.0750 H5         1 TMC      0.155797
     20 H6         -2.1860   -1.5720   -2.8930 H5         1 TMC      0.040599
     21 H7         -6.0080   -1.9280    1.8790 HC         1 TMC      0.126559
     22 H8         -7.8760   -0.1360    0.6760 HO         1 TMC      0.476626
     23 C9          1.7530    2.3120   -0.1930 CT         1 TMC      0.025710
     24 C10         3.2020    2.2650   -0.6980 CT         1 TMC     -0.123482
     25 C11         4.0540    1.2550    0.0210 CM         1 TMC      0.019055
     26 C12         4.7310    0.2790   -0.5610 CM         1 TMC     -0.351725
     27 P1          5.7790   -0.8650    0.3090 P          1 TMC      1.207689
     28 H9          1.4390    0.1730   -0.1080 H1         1 TMC      0.053905
     29 H10         0.9150    0.9110   -1.5970 H1         1 TMC      0.053905
     30 H11         1.2530    3.1670   -0.6360 HC         1 TMC      0.014755
     31 H12         1.7540    2.4740    0.8840 HC         1 TMC      0.014755
     32 H13         3.2190    2.0740   -1.7660 HC         1 TMC      0.078356
     33 H14         3.6480    3.2460   -0.5470 HC         1 TMC      0.078356
     34 H15         4.1010    1.3590    1.0920 HA         1 TMC      0.124936
     35 H16         4.7000    0.1450   -1.6290 HA         1 TMC      0.209140
     36 O2          7.2080   -0.8580    0.0140 O2         1 TMC     -0.745756
     37 O3          5.0890   -2.2670   -0.0050 OH         1 TMC     -0.676900
     38 O4          5.4800   -0.5870    1.8530 OH         1 TMC     -0.676900
     39 H17         6.2900   -0.5120    2.3470 HO         1 TMC      0.463101
     40 H18         5.7230   -2.9760   -0.0410 HO         1 TMC      0.463101
@<TRIPOS>BOND
    1     1     2 1
    2     1     3 1
    3     1     9 1
    4     4     5 1
    5     4    17 1
    6     5     6 1
    7     5    13 1
    8     6     7 1
    9     6    10 1
   10     7     8 1
   11     8     9 1
   12     9    10 1
   13    10    11 1
   14    11    12 1
   15    12    13 1
   16    17    23 1
   17    23    24 1
   18    24    25 1
   19    25    26 1
   20    26    27 1
   21    27    36 1
   22    27    37 1
   23    27    38 1
   24     1    14 1
   25     2    15 1
   26     2    16 1
   27     2    21 1
   28     3    22 1
   29     4    18 1
   30     8    19 1
   31    12    20 1
   32    17    28 1
   33    17    29 1
   34    23    30 1
   35    23    31 1
   36    24    32 1
   37    24    33 1
   38    25    34 1
   39    26    35 1
   40    37    40 1
   41    38    39 1
@<TRIPOS>SUBSTRUCTURE
      1 TMC               1 ****               0 ****  **** 
