@<TRIPOS>MOLECULE
modXNA-fragment:TMG:HEAD01:@N9:HEAD01STRIP:@C1',H1',O4',HHO4,C2',H2'1,H2'3,H2'2
   33    34     1     0     0
SMALL
USER_CHARGES


@<TRIPOS>ATOM
      1 O4'         3.4520   -1.8080    0.6470 OH         1 TMG     -0.736003
      2 C1'         2.1360   -1.9270    0.2290 CT         1 TMG      0.296409
      3 H1'         1.5170   -2.3820    0.9910 H2         1 TMG      0.079748
      4 N9          1.6780   -0.5290    0.1220 N*         1 TMG     -0.009685
      5 C8          2.4630    0.5500    0.0760 CR         1 TMG      0.040990
      6 H8          3.5290    0.5090    0.1150 H5         1 TMG      0.258116
      7 N7          1.7510    1.6370   -0.0050 N*         1 TMG      0.030812
      8 C5          0.4160    1.2550   -0.0100 CB         1 TMG     -0.206239
      9 C6         -0.8030    2.0060   -0.0670 C          1 TMG      0.612622
     10 O6         -0.9530    3.1860   -0.1380 O          1 TMG     -0.567291
     11 N1         -1.8940    1.1280   -0.0260 NA         1 TMG     -0.562016
     12 H1         -2.7760    1.5940   -0.0500 H          1 TMG      0.403021
     13 C2         -1.8420   -0.2390    0.0620 CA         1 TMG      0.606067
     14 N2         -2.9890   -0.9080    0.1020 N2         1 TMG     -0.165184
     15 C15        -4.2770   -0.2360   -0.0370 CT         1 TMG     -0.212862
     16 C16        -2.9420   -2.3690    0.1930 CT         1 TMG     -0.212862
     17 N3         -0.7000   -0.8910    0.1070 NC         1 TMG     -0.708863
     18 C4          0.3720   -0.1010    0.0730 CB         1 TMG      0.291020
     19 C2'         1.9940   -2.6540   -1.0950 CT         1 TMG     -0.346668
     20 H2'1        2.6050   -2.1770   -1.8530 HC         1 TMG      0.144809
     21 HHO4        3.8700   -2.6590    0.6940 HO         1 TMG      0.504332
     22 H2'2        2.3210   -3.6810   -0.9800 HC         1 TMG      0.144809
     23 H2'3        0.9610   -2.6650   -1.4170 HC         1 TMG      0.144809
     24 C8          2.2530    3.0140   -0.0680 CT         1 TMG     -0.208296
     25 1H15       -5.0550   -0.9800   -0.0330 H1         1 TMG      0.142528
     26 2H15       -4.3440    0.3060   -0.9740 H1         1 TMG      0.142528
     27 3H15       -4.4630    0.4410    0.7900 H1         1 TMG      0.142528
     28 1H16       -3.9340   -2.7270    0.4170 H1         1 TMG      0.142528
     29 2H16       -2.2730   -2.6730    0.9820 H1         1 TMG      0.142528
     30 3H16       -2.6080   -2.8060   -0.7400 H1         1 TMG      0.142528
     31 H81         3.3310    2.9850   -0.0400 H1         1 TMG      0.164080
     32 H82         1.8710    3.5670    0.7750 H1         1 TMG      0.164080
     33 H83         1.9150    3.4720   -0.9840 H1         1 TMG      0.164080
@<TRIPOS>BOND
    1     1     2 1
    2     2     4 1
    3     2    19 1
    4     4     5 1
    5     4    18 1
    6     5     7 1
    7     7     8 1
    8     7    24 1
    9     8     9 1
   10     8    18 1
   11     9    10 1
   12     9    11 1
   13    11    13 1
   14    13    14 1
   15    13    17 1
   16    14    15 1
   17    14    16 1
   18    17    18 1
   19     1    21 1
   20     2     3 1
   21     5     6 1
   22    11    12 1
   23    15    25 1
   24    15    26 1
   25    15    27 1
   26    16    28 1
   27    16    29 1
   28    16    30 1
   29    19    20 1
   30    19    22 1
   31    19    23 1
   32    24    31 1
   33    24    32 1
   34    24    33 1
@<TRIPOS>SUBSTRUCTURE
      1 TMG               1 ****               0 ****  **** 
