@<TRIPOS>MOLECULE
modXNA-fragment:TSU:HEAD01:@N1:HEAD01STRIP:@C1',H1',O4',HO4',C2',H2'1,H2'3,H2'2
   34    34     1     0     0
SMALL
USER_CHARGES


@<TRIPOS>ATOM
      1 O4'         2.3210   -2.8010    0.4040 OH         1 TSU     -0.693565
      2 C1'         3.2940   -1.8360    0.2090 CT         1 TSU      0.371193
      3 H1'         3.8140   -1.9810   -0.7210 H2         1 TSU     -0.016053
      4 N1          2.6400   -0.5010    0.1050 N*         1 TSU      0.271531
      5 C6          1.6020   -0.2330    0.9810 CM         1 TSU     -0.279454
      6 H6          1.3580   -1.0520    1.6250 H4         1 TSU      0.236642
      7 C5          0.9390    0.9210    1.0300 CM         1 TSU     -0.016895
      8 C8         -0.1900    1.2140    1.9970 CT         1 TSU     -0.209982
      9 C4          1.3340    1.9620    0.0870 C          1 TSU      0.504892
     10 O4          0.8230    3.0400   -0.0140 O          1 TSU     -0.577516
     11 N3          2.3950    1.6080   -0.7320 NA         1 TSU     -0.196250
     12 H3          2.7010    2.3080   -1.3770 H          1 TSU      0.262913
     13 C2          3.0790    0.4390   -0.7640 C          1 TSU     -0.075584
     14 S2          4.3620    0.2580   -1.8260 S          1 TSU     -0.371996
     15 C2'         4.2590   -1.8810    1.3750 CT         1 TSU     -0.209359
     16 H2'1        5.0230   -1.1230    1.2580 HC         1 TSU      0.085522
     17 HO4'        1.8740   -2.9870   -0.4130 HO         1 TSU      0.430876
     18 H2'2        3.7390   -1.7220    2.3130 HC         1 TSU      0.085522
     19 H2'3        4.7300   -2.8550    1.4090 HC         1 TSU      0.085522
     20 H81        -0.2970    0.3770    2.6790 H1         1 TSU      0.187271
     21 N9         -1.4800    1.4910    1.3950 NT         1 TSU     -0.738278
     22 H82         0.0770    2.0790    2.5920 H1         1 TSU      0.187271
     23 C10        -2.0400    0.4050    0.6190 CT         1 TSU      0.399088
     24 H9         -1.4110    2.3260    0.8470 H          1 TSU      0.378647
     25 C11        -3.4830    0.7600    0.2630 CT         1 TSU     -0.420019
     26 1H10       -2.0320   -0.4900    1.2300 H1         1 TSU      0.000882
     27 2H10       -1.4890    0.1820   -0.2910 H1         1 TSU      0.000882
     28 S13        -4.3280   -0.5210   -0.6240 SO         1 TSU      1.214956
     29 1H11       -3.5280    1.6240   -0.3900 H1         1 TSU      0.188432
     30 2H11       -4.0640    0.9720    1.1490 H1         1 TSU      0.188432
     31 O15        -5.6800   -0.1250   -0.8560 O          1 TSU     -0.575334
     32 O16        -4.3810   -1.6790    0.4670 OH         1 TSU     -0.624530
     33 O17        -3.5070   -0.9710   -1.6940 O          1 TSU     -0.575334
     34 6HO1       -5.2910   -1.8610    0.6890 HO         1 TSU      0.479504
@<TRIPOS>BOND
    1     1     2 1
    2     2     4 1
    3     2    15 1
    4     4     5 1
    5     4    13 1
    6     5     7 1
    7     7     8 1
    8     7     9 1
    9     8    21 1
   10     9    10 1
   11     9    11 1
   12    11    13 1
   13    13    14 1
   14    21    23 1
   15    23    25 1
   16    25    28 1
   17    28    31 1
   18    28    32 1
   19    28    33 1
   20     1    17 1
   21     2     3 1
   22     5     6 1
   23     8    20 1
   24     8    22 1
   25    11    12 1
   26    15    16 1
   27    15    18 1
   28    15    19 1
   29    21    24 1
   30    23    26 1
   31    23    27 1
   32    25    29 1
   33    25    30 1
   34    32    34 1
@<TRIPOS>SUBSTRUCTURE
      1 TSU               1 ****               0 ****  **** 
