@<TRIPOS>MOLECULE
modXNA-fragment:WYB:HEAD01:@N9:HEAD01STRIP:@C1',H1',O4',HHO4,C2',H2'1,H2'3,H2'2
   54    56     1     0     0
SMALL
USER_CHARGES


@<TRIPOS>ATOM
      1 O4'        -5.8800   -0.4930    1.8230 OH         1 WYB     -0.625666
      2 C1'        -5.9570    0.0520    0.5380 CT         1 WYB      0.233733
      3 H1'        -5.8880    1.1290    0.5870 H2         1 WYB      0.073545
      4 N9         -4.8010   -0.4130   -0.1970 N*         1 WYB      0.014652
      5 C8         -4.7700   -1.5040   -1.0530 CK         1 WYB      0.176261
      6 H8         -5.6440   -2.0880   -1.2380 H5         1 WYB      0.132310
      7 N7         -3.6290   -1.7060   -1.5740 NB         1 WYB     -0.575198
      8 C5         -2.8150   -0.7300   -1.0470 CB         1 WYB      0.090889
      9 C6         -1.4210   -0.5070   -1.3550 C          1 WYB      0.452630
     10 O6         -0.7400   -1.1370   -2.1030 O          1 WYB     -0.507236
     11 N1         -0.9260    0.6020   -0.6440 N*         1 WYB     -0.122099
     12 C2         -1.6560    1.3880    0.2090 CB         1 WYB      0.252675
     13 N3         -2.9760    1.1100    0.4990 N*         1 WYB     -0.005264
     14 C4         -3.5190    0.0600   -0.1850 CB         1 WYB     -0.065232
     15 C2'        -7.2680   -0.3120   -0.1450 CT         1 WYB     -0.390825
     16 H2'1       -7.2880    0.0370   -1.1700 HC         1 WYB      0.149605
     17 HHO4       -6.6450   -0.2470    2.3270 HO         1 WYB      0.426633
     18 H2'2       -8.0830    0.1660    0.3880 HC         1 WYB      0.149605
     19 H2'3       -7.4400   -1.3800   -0.1220 HC         1 WYB      0.149605
     20 C21         0.3640    1.1850   -0.6780 CA         1 WYB     -0.140308
     21 N21        -0.9870    2.3630    0.6960 NB         1 WYB     -0.638893
     22 C22         0.2800    2.2480    0.1440 CC         1 WYB      0.353522
     23 C23         1.3120    3.2720    0.4990 CT         1 WYB     -0.311411
     24 1H23        2.2600    3.0770    0.0180 HC         1 WYB      0.113725
     25 2H23        1.4700    3.2920    1.5730 HC         1 WYB      0.113725
     26 3H23        0.9720    4.2610    0.2070 HC         1 WYB      0.113725
     27 C27         1.5100    0.6630   -1.5000 CT         1 WYB     -0.134796
     28 C28         2.1850   -0.6090   -0.9640 CT         1 WYB     -0.030551
     29 C29         2.8530   -0.4230    0.4070 CT         1 WYB     -0.000059
     30 N30         3.8710    0.6060    0.4340 N          1 WYB     -0.704451
     31 C31         5.0420    0.4690   -0.2460 C          1 WYB      0.798331
     32 O32         5.9370    1.3420    0.2000 OS         1 WYB     -0.478744
     33 C33         7.2050    1.3200   -0.4300 CT         1 WYB     -0.004804
     34 O34         5.2400   -0.2900   -1.1450 O          1 WYB     -0.635433
     35 1H33        7.7890    2.0800    0.0660 H1         1 WYB      0.081548
     36 2H33        7.1100    1.5470   -1.4820 H1         1 WYB      0.081548
     37 3H33        7.6690    0.3530   -0.3120 H1         1 WYB      0.081548
     38 C38         3.3930   -1.7220    1.0030 C          1 WYB      0.603233
     39 O39         4.4330   -1.8160    1.5710 O          1 WYB     -0.586338
     40 O41         2.5340   -2.7180    0.8810 OS         1 WYB     -0.382365
     41 C42         2.9140   -3.9680    1.4300 CT         1 WYB     -0.108390
     42 1H42        2.1000   -4.6420    1.2140 H1         1 WYB      0.118341
     43 2H42        3.0600   -3.8840    2.4980 H1         1 WYB      0.118341
     44 3H42        3.8260   -4.3190    0.9710 H1         1 WYB      0.118341
     45 H29         2.0860   -0.0960    1.1010 H1         1 WYB      0.103363
     46 1H28        1.4520   -1.3970   -0.8830 HC         1 WYB      0.068807
     47 2H28        2.9270   -0.9310   -1.6810 HC         1 WYB      0.068807
     48 1H27        1.1690    0.4560   -2.5050 HC         1 WYB      0.100747
     49 2H27        2.2420    1.4560   -1.5720 HC         1 WYB      0.100747
     50 H30         3.9640    1.1050    1.2900 H          1 WYB      0.332539
     51 C51        -3.6260    1.8990    1.5390 CT         1 WYB     -0.068453
     52 1H51       -2.8520    2.3520    2.1350 H1         1 WYB      0.081039
     53 2H51       -4.2290    1.2560    2.1600 H1         1 WYB      0.081039
     54 3H51       -4.2320    2.6890    1.1110 H1         1 WYB      0.081039
@<TRIPOS>BOND
    1     1     2 1
    2     2     4 1
    3     2    15 1
    4     4     5 1
    5     4    14 1
    6     5     7 1
    7     7     8 1
    8     8     9 1
    9     8    14 1
   10     9    10 1
   11     9    11 1
   12    11    12 1
   13    11    20 1
   14    12    13 1
   15    12    21 1
   16    13    14 1
   17    13    51 1
   18    20    22 1
   19    20    27 1
   20    21    22 1
   21    22    23 1
   22    27    28 1
   23    28    29 1
   24    29    30 1
   25    29    38 1
   26    30    31 1
   27    31    32 1
   28    31    34 1
   29    32    33 1
   30    38    39 1
   31    38    40 1
   32    40    41 1
   33     1    17 1
   34     2     3 1
   35     5     6 1
   36    15    16 1
   37    15    18 1
   38    15    19 1
   39    23    24 1
   40    23    25 1
   41    23    26 1
   42    27    48 1
   43    27    49 1
   44    28    46 1
   45    28    47 1
   46    29    45 1
   47    30    50 1
   48    33    35 1
   49    33    36 1
   50    33    37 1
   51    41    42 1
   52    41    43 1
   53    41    44 1
   54    51    52 1
   55    51    53 1
   56    51    54 1
@<TRIPOS>SUBSTRUCTURE
      1 WYB               1 ****               0 ****  **** 
