@<TRIPOS>MOLECULE
modXNA-fragment:XAN:HEAD01:@N9:HEAD01STRIP:@C1',H1',O4',HHO4,C2',H2'1,H2'3,H2'2
   22    23     1     0     0
SMALL
USER_CHARGES


@<TRIPOS>ATOM
      1 O4'        -2.3140    1.5690    0.5650 OH         1 XAN     -0.636809
      2 C1'        -2.4830    0.4900   -0.3110 CT         1 XAN      0.306630
      3 H1'        -2.4320    0.8490   -1.3350 H2         1 XAN      0.027060
      4 N9         -1.3460   -0.3780   -0.0830 N*         1 XAN     -0.109004
      5 C8         -1.3030   -1.7630   -0.0010 CK         1 XAN      0.115732
      6 H8         -2.1950   -2.3490    0.0110 H5         1 XAN      0.156680
      7 N7         -0.1170   -2.2240    0.0650 NB         1 XAN     -0.537758
      8 C5          0.7020   -1.1200    0.0280 CB         1 XAN      0.034957
      9 C6          2.1500   -1.0210    0.0490 C          1 XAN      0.568646
     10 O6          2.9540   -1.8960    0.1180 O          1 XAN     -0.565460
     11 N1          2.5640    0.3190   -0.0310 NA         1 XAN     -0.598879
     12 H1          3.5510    0.4650    0.0010 H          1 XAN      0.405651
     13 C2          1.8170    1.4700   -0.0730 C          1 XAN      0.717307
     14 O14         2.3000    2.5620   -0.0560 O          1 XAN     -0.638908
     15 N3          0.4550    1.2730   -0.1430 NA         1 XAN     -0.672970
     16 C4         -0.0460    0.0050   -0.0610 CB         1 XAN      0.215731
     17 C2'        -3.8050   -0.2180   -0.0790 CT         1 XAN     -0.316570
     18 H2'1       -3.9590   -1.0230   -0.7890 HC         1 XAN      0.124898
     19 HHO4       -2.9700    2.2320    0.3900 HO         1 XAN      0.435721
     20 H2'2       -3.8570   -0.6060    0.9310 HC         1 XAN      0.124898
     21 H2'3       -4.6110    0.4950   -0.2150 HC         1 XAN      0.124898
     22 H3         -0.1240    2.0660    0.0280 H          1 XAN      0.388008
@<TRIPOS>BOND
    1     1     2 1
    2     2     4 1
    3     2    17 1
    4     4     5 1
    5     4    16 1
    6     5     7 1
    7     7     8 1
    8     8     9 1
    9     8    16 1
   10     9    10 1
   11     9    11 1
   12    11    13 1
   13    13    14 1
   14    13    15 1
   15    15    16 1
   16     1    19 1
   17     2     3 1
   18     5     6 1
   19    11    12 1
   20    15    22 1
   21    17    18 1
   22    17    20 1
   23    17    21 1
@<TRIPOS>SUBSTRUCTURE
      1 XAN               1 ****               0 ****  **** 
