@<TRIPOS>MOLECULE
modXNA-fragment:YW5:HEAD01:@N9:HEAD01STRIP:@C1',H1',O4',HHO4,C2',H2'1,H2'3,H2'2
   48    50     1     0     0
SMALL
USER_CHARGES


@<TRIPOS>ATOM
      1 O4'        -4.6280   -0.3960    1.6510 OH         1 YW5     -0.624244
      2 C1'        -4.5890   -0.0710    0.2920 CT         1 YW5      0.216662
      3 H1'        -4.5930    1.0020    0.1640 H2         1 YW5      0.087626
      4 N9         -3.3290   -0.5510   -0.2310 N*         1 YW5      0.037352
      5 C8         -3.1160   -1.7770   -0.8430 CK         1 YW5      0.174259
      6 H8         -3.9070   -2.4870   -0.9500 H5         1 YW5      0.132084
      7 N7         -1.9230   -1.9420   -1.2470 NB         1 YW5     -0.579020
      8 C5         -1.2610   -0.7900   -0.8860 CB         1 YW5      0.097326
      9 C6          0.1180   -0.4640   -1.1450 C          1 YW5      0.432068
     10 O6          0.9320   -1.1570   -1.6860 O          1 YW5     -0.520198
     11 N1          0.4270    0.8210   -0.6840 N*         1 YW5     -0.115352
     12 C12         1.6450    1.5350   -0.7610 CA         1 YW5     -0.204171
     13 C2         -0.4400    1.6580   -0.0310 CB         1 YW5      0.281952
     14 N2          0.0820    2.7800    0.2860 NB         1 YW5     -0.631869
     15 C15         1.3900    2.7120   -0.1650 CC         1 YW5      0.391252
     16 N3         -1.7390    1.2820    0.2440 N*         1 YW5     -0.034115
     17 C4         -2.1090    0.0630   -0.2410 CB         1 YW5     -0.060540
     18 C2'        -5.7850   -0.6470   -0.4540 CT         1 YW5     -0.388324
     19 H2'1       -5.8910   -1.7080   -0.2710 HC         1 YW5      0.147918
     20 HHO4       -5.4550   -0.1240    2.0270 HO         1 YW5      0.426331
     21 H2'2       -6.6870   -0.1590   -0.0980 HC         1 YW5      0.147918
     22 H2'3       -5.7070   -0.4690   -1.5200 HC         1 YW5      0.147918
     23 C24        -2.5010    2.1100    1.1760 CT         1 YW5     -0.110673
     24 1H24       -1.7970    2.6820    1.7550 H1         1 YW5      0.099831
     25 2H24       -3.0780    1.4790    1.8320 H1         1 YW5      0.099831
     26 3H24       -3.1480    2.7990    0.6470 H1         1 YW5      0.099831
     27 C27         2.2990    3.8770    0.0660 CT         1 YW5     -0.422729
     28 1H27        3.2640    3.7360   -0.4050 HC         1 YW5      0.154308
     29 2H27        2.4600    4.0220    1.1290 HC         1 YW5      0.154308
     30 3H27        1.8540    4.7860   -0.3250 HC         1 YW5      0.154308
     31 C31         2.9150    1.0280   -1.3880 CT         1 YW5      0.075454
     32 C32         3.9360    0.3530   -0.4480 CT         1 YW5     -0.219726
     33 C33         3.6350   -1.0740    0.0280 CT         1 YW5      0.292879
     34 C34         2.5770   -1.1170    1.1300 C          1 YW5      0.596963
     35 O35         1.8730   -2.2230    1.3080 OS         1 YW5     -0.508864
     36 C36         2.0380   -3.3930    0.5260 CT         1 YW5      0.309173
     37 1H31        2.6860    0.3700   -2.2130 HC         1 YW5      0.017579
     38 2H31        3.4120    1.8930   -1.8150 HC         1 YW5      0.017579
     39 1H32        4.8720    0.2940   -1.0010 HC         1 YW5      0.068624
     40 2H32        4.1150    0.9840    0.4150 HC         1 YW5      0.068624
     41 H33         3.3070   -1.6650   -0.8140 H1         1 YW5      0.045137
     42 N18         4.7970   -1.7470    0.6100 NT         1 YW5     -0.995804
     43 1H18        5.1800   -1.1970    1.3560 H          1 YW5      0.359878
     44 2H18        5.5170   -1.8610   -0.0770 H          1 YW5      0.359878
     45 O45         2.4110   -0.2000    1.8690 O          1 YW5     -0.593342
     46 1H36        1.4310   -4.1430    1.0100 H1         1 YW5     -0.037026
     47 2H36        3.0710   -3.7090    0.5220 H1         1 YW5     -0.037026
     48 3H36        1.6760   -3.2340   -0.4790 H1         1 YW5     -0.037026
@<TRIPOS>BOND
    1     1     2 1
    2     2     4 1
    3     2    18 1
    4     4     5 1
    5     4    17 1
    6     5     7 1
    7     7     8 1
    8     8     9 1
    9     8    17 1
   10     9    10 1
   11     9    11 1
   12    11    12 1
   13    11    13 1
   14    12    15 1
   15    12    31 1
   16    13    14 1
   17    13    16 1
   18    14    15 1
   19    15    27 1
   20    16    17 1
   21    16    23 1
   22    31    32 1
   23    32    33 1
   24    33    34 1
   25    33    42 1
   26    34    35 1
   27    34    45 1
   28    35    36 1
   29     1    20 1
   30     2     3 1
   31     5     6 1
   32    18    19 1
   33    18    21 1
   34    18    22 1
   35    23    24 1
   36    23    25 1
   37    23    26 1
   38    27    28 1
   39    27    29 1
   40    27    30 1
   41    31    37 1
   42    31    38 1
   43    32    39 1
   44    32    40 1
   45    33    41 1
   46    36    46 1
   47    36    47 1
   48    36    48 1
   49    42    43 1
   50    42    44 1
@<TRIPOS>SUBSTRUCTURE
      1 YW5               1 ****               0 ****  **** 
