@<TRIPOS>MOLECULE
modXNA-fragment:YW7:HEAD01:@N9:HEAD01STRIP:@C1',H1',O4',HHO4,C2',H2'1,H2'3,H2'2
   45    47     1     0     0
SMALL
USER_CHARGES


@<TRIPOS>ATOM
      1 O4'        -5.1290   -0.4960    1.6380 OH         1 YW7     -0.616232
      2 C1'        -5.0290   -0.4320    0.2450 CT         1 YW7      0.224012
      3 H1'        -5.1030    0.5940   -0.0860 H2         1 YW7      0.081594
      4 N9         -3.7060   -0.8960   -0.1120 N*         1 YW7      0.016794
      5 C8         -3.3770   -2.1870   -0.5000 CK         1 YW7      0.178585
      6 H8         -4.1190   -2.9510   -0.5670 H5         1 YW7      0.132879
      7 N7         -2.1440   -2.3380   -0.7620 NB         1 YW7     -0.567783
      8 C5         -1.5740   -1.1090   -0.5280 CB         1 YW7      0.086061
      9 C6         -0.1880   -0.7470   -0.7140 C          1 YW7      0.471569
     10 O6          0.7020   -1.4520   -1.0780 O          1 YW7     -0.541746
     11 N1          0.0120    0.6130   -0.4150 N*         1 YW7     -0.079251
     12 C13        -0.9530    1.4900    0.0040 CB         1 YW7      0.229449
     13 N2         -0.5120    2.6770    0.1870 NB         1 YW7     -0.621791
     14 N3         -2.2560    1.0840    0.2050 N*         1 YW7      0.015803
     15 C4         -2.5200   -0.2180   -0.1110 CB         1 YW7     -0.082104
     16 C2'        -6.1310   -1.2340   -0.4320 CT         1 YW7     -0.396081
     17 H2'1       -5.9990   -1.2560   -1.5070 HC         1 YW7      0.152051
     18 HHO4       -6.0030   -0.2490    1.9130 HO         1 YW7      0.423510
     19 H2'2       -7.0850   -0.7620   -0.2220 HC         1 YW7      0.152051
     20 H2'3       -6.1720   -2.2460   -0.0510 HC         1 YW7      0.152051
     21 8C18       -3.1740    2.0310    0.8300 CT         1 YW7     -0.058138
     22 C23         0.8380    2.6160   -0.1210 CC         1 YW7      0.380539
     23 C24         1.1990    1.3760   -0.4950 CA         1 YW7     -0.219841
     24 1C24        1.6640    3.8580   -0.0040 CT         1 YW7     -0.538043
     25 3C24        2.5290    0.8090   -0.8930 CT         1 YW7      0.069163
     26 8H18       -2.5810    2.7800    1.3260 H1         1 YW7      0.071980
     27 8H18       -3.7870    1.5190    1.5540 H1         1 YW7      0.071980
     28 8H18       -3.7930    2.5220    0.0880 H1         1 YW7      0.071980
     29 1H24        2.6920    3.6890   -0.2970 HC         1 YW7      0.145210
     30 1H24        1.6570    4.2200    1.0190 HC         1 YW7      0.145210
     31 1H24        1.2540    4.6440   -0.6310 HC         1 YW7      0.145210
     32 3H24        2.4040    0.1530   -1.7440 HC         1 YW7      0.015116
     33 C14         3.2290    0.0530    0.2470 CT         1 YW7     -0.030359
     34 3H24        3.1470    1.6380   -1.2200 HC         1 YW7      0.015116
     35 C15         4.4430   -0.7440   -0.2330 CT         1 YW7      0.237628
     36 1H14        2.5430   -0.6390    0.7100 HC         1 YW7      0.021484
     37 2H14        3.5340    0.7580    1.0180 HC         1 YW7      0.021484
     38 C17         5.0850   -1.5230    0.9200 C          1 YW7      0.540713
     39 N18         5.4800    0.0190   -0.9290 NT         1 YW7     -1.046678
     40 H15         4.0960   -1.5050   -0.9270 H1         1 YW7      0.040706
     41 O18         6.3760   -1.7710    0.7690 OH         1 YW7     -0.597684
     42 O20         4.4760   -1.9090    1.8600 O          1 YW7     -0.579109
     43 1H18        5.6380    0.9060   -0.4880 H          1 YW7      0.387422
     44 2H18        5.2300    0.1970   -1.8810 H          1 YW7      0.387422
     45 8HO1        6.6780   -1.3210   -0.0180 HO         1 YW7      0.403467
@<TRIPOS>BOND
    1     1     2 1
    2     2     4 1
    3     2    16 1
    4     4     5 1
    5     4    15 1
    6     5     7 1
    7     7     8 1
    8     8     9 1
    9     8    15 1
   10     9    10 1
   11     9    11 1
   12    11    12 1
   13    11    23 1
   14    12    13 1
   15    12    14 1
   16    13    22 1
   17    14    15 1
   18    14    21 1
   19    22    23 1
   20    22    24 1
   21    23    25 1
   22    25    33 1
   23    33    35 1
   24    35    38 1
   25    35    39 1
   26    38    41 1
   27    38    42 1
   28     1    18 1
   29     2     3 1
   30     5     6 1
   31    16    17 1
   32    16    19 1
   33    16    20 1
   34    21    26 1
   35    21    27 1
   36    21    28 1
   37    24    29 1
   38    24    30 1
   39    24    31 1
   40    25    32 1
   41    25    34 1
   42    33    36 1
   43    33    37 1
   44    35    40 1
   45    39    43 1
   46    39    44 1
   47    41    45 1
@<TRIPOS>SUBSTRUCTURE
      1 YW7               1 ****               0 ****  **** 
