@<TRIPOS>MOLECULE
modXNA-fragment:YW8:HEAD01:@N9:HEAD01STRIP:@C1',H1',O4',HHO4,C2',H2'1,H2'3,H2'2
   42    44     1     0     0
SMALL
USER_CHARGES


@<TRIPOS>ATOM
      1 O4'        -4.2860    0.6250    1.5400 OH         1 YW8     -0.645458
      2 C1'        -4.6070    0.0930    0.2850 CT         1 YW8      0.300142
      3 H1'        -4.8630    0.9030   -0.3910 H2         1 YW8      0.024045
      4 N9         -3.3940   -0.5280   -0.2000 N*         1 YW8     -0.092271
      5 C8         -3.2160   -1.7590   -0.8180 CK         1 YW8      0.118776
      6 H8         -4.0160   -2.4610   -0.9040 H5         1 YW8      0.149296
      7 N7         -2.0290   -1.9390   -1.2420 NB         1 YW8     -0.529690
      8 C5         -1.3430   -0.7910   -0.9040 CB         1 YW8     -0.023477
      9 C6          0.0450   -0.4600   -1.1420 C          1 YW8      0.540184
     10 O6          0.8590   -1.1440   -1.6900 O          1 YW8     -0.570445
     11 N1          0.3530    0.8220   -0.6550 N*         1 YW8     -0.216229
     12 C12         1.5970    1.4880   -0.6140 CA         1 YW8     -0.205644
     13 C2         -0.5110    1.6560    0.0050 CB         1 YW8      0.568088
     14 N2          0.0240    2.7360    0.4200 NB         1 YW8     -0.725039
     15 C15         1.3540    2.6400    0.0350 CC         1 YW8      0.376299
     16 N3         -1.8360    1.3100    0.1590 NA         1 YW8     -0.765057
     17 C4         -2.1790    0.0680   -0.2660 CB         1 YW8      0.261157
     18 C2'        -5.7620   -0.8880    0.3730 CT         1 YW8     -0.301983
     19 H2'1       -5.5110   -1.7120    1.0300 HC         1 YW8      0.118589
     20 HHO4       -5.0020    1.1620    1.8550 HO         1 YW8      0.433549
     21 H2'2       -6.6260   -0.3750    0.7820 HC         1 YW8      0.118589
     22 H2'3       -6.0390   -1.2690   -0.6030 HC         1 YW8      0.118589
     23 C27         2.2890    3.7550    0.3800 CT         1 YW8     -0.356226
     24 1H27        3.2790    3.5950   -0.0270 HC         1 YW8      0.131530
     25 2H27        2.3780    3.8520    1.4570 HC         1 YW8      0.131530
     26 3H27        1.9090    4.6970   -0.0020 HC         1 YW8      0.131530
     27 C31         2.8830    0.9720   -1.1960 CT         1 YW8     -0.035991
     28 C32         3.8270    0.1890   -0.2570 CT         1 YW8     -0.034211
     29 C33         3.5080   -1.2930    0.0130 CT         1 YW8      0.258384
     30 C34         2.5520   -1.5070    1.1890 C          1 YW8      0.568432
     31 O35         2.6240   -2.7050    1.7430 OH         1 YW8     -0.636606
     32 1H31        2.6830    0.3850   -2.0800 HC         1 YW8      0.059705
     33 2H31        3.4380    1.8440   -1.5280 HC         1 YW8      0.059705
     34 1H32        4.8030    0.2030   -0.7360 HC         1 YW8      0.006163
     35 2H32        3.9310    0.7220    0.6830 HC         1 YW8      0.006163
     36 H33         2.9890   -1.7090   -0.8410 H1         1 YW8      0.077860
     37 N18         4.6900   -2.1300    0.2350 NT         1 YW8     -1.102078
     38 1H18        5.3460   -1.6790    0.8460 H          1 YW8      0.396060
     39 2H18        5.1640   -2.3130   -0.6270 H          1 YW8      0.396060
     40 O45         1.7810   -0.6900    1.5710 O          1 YW8     -0.560890
     41 H3         -2.3420    1.7520    0.8950 H          1 YW8      0.447009
     42 5HO3        3.3620   -3.1720    1.3560 HO         1 YW8      0.429852
@<TRIPOS>BOND
    1     1     2 1
    2     2     4 1
    3     2    18 1
    4     4     5 1
    5     4    17 1
    6     5     7 1
    7     7     8 1
    8     8     9 1
    9     8    17 1
   10     9    10 1
   11     9    11 1
   12    11    12 1
   13    11    13 1
   14    12    15 1
   15    12    27 1
   16    13    14 1
   17    13    16 1
   18    14    15 1
   19    15    23 1
   20    16    17 1
   21    27    28 1
   22    28    29 1
   23    29    30 1
   24    29    37 1
   25    30    31 1
   26    30    40 1
   27     1    20 1
   28     2     3 1
   29     5     6 1
   30    16    41 1
   31    18    19 1
   32    18    21 1
   33    18    22 1
   34    23    24 1
   35    23    25 1
   36    23    26 1
   37    27    32 1
   38    27    33 1
   39    28    34 1
   40    28    35 1
   41    29    36 1
   42    31    42 1
   43    37    38 1
   44    37    39 1
@<TRIPOS>SUBSTRUCTURE
      1 YW8               1 ****               0 ****  **** 
